MODEL 1
REMARK VINA RESULT:    -4.706      0.000      0.000
REMARK INTER + INTRA:         -11.827
REMARK INTER:                  -9.108
REMARK INTRA:                  -2.719
REMARK UNBOUND:                -2.719
REMARK SMILES CCCCCCCCCCCCCCCCCC(=O)[O-]
REMARK SMILES IDX 10 1 11 2 12 3 13 4 14 5 15 6 16 7 17 8 18 9 19 10 20 11
REMARK SMILES IDX 9 12 8 13 7 14 6 15 5 16 4 17 3 18 2 19 1 20
REMARK H PARENT
REMARK Flexibility Score: inf
ROOT
ATOM      1  C   UNL     1     181.525 183.947 180.419  1.00  0.00     0.000 C 
ENDROOT
BRANCH   1   2
ATOM      2  C   UNL     1     182.599 183.099 179.716  1.00  0.00     0.000 C 
BRANCH   2   3
ATOM      3  C   UNL     1     182.005 182.043 178.766  1.00  0.00     0.000 C 
BRANCH   3   4
ATOM      4  C   UNL     1     180.822 181.239 179.333  1.00  0.00     0.000 C 
BRANCH   4   5
ATOM      5  C   UNL     1     181.260 180.108 180.278  1.00  0.00     0.000 C 
BRANCH   5   6
ATOM      6  C   UNL     1     180.121 179.618 181.190  1.00  0.00     0.000 C 
BRANCH   6   7
ATOM      7  C   UNL     1     179.580 180.705 182.143  1.00  0.00     0.006 C 
BRANCH   7   8
ATOM      8  C   UNL     1     178.117 181.057 181.846  1.00  0.00     0.053 C 
BRANCH   8   9
ATOM      9  C   UNL     1     177.939 182.540 181.773  1.00  0.00     0.041 C 
ATOM     10  O   UNL     1     178.146 183.151 180.691  1.00  0.00    -0.550 OA
ATOM     11  O   UNL     1     177.494 183.243 182.886  1.00  0.00    -0.550 OA
ENDBRANCH   8   9
ENDBRANCH   7   8
ENDBRANCH   6   7
ENDBRANCH   5   6
ENDBRANCH   4   5
ENDBRANCH   3   4
ENDBRANCH   2   3
ENDBRANCH   1   2
BRANCH   1  12
ATOM     12  C   UNL     1     181.608 183.848 181.952  1.00  0.00     0.000 C 
BRANCH  12  13
ATOM     13  C   UNL     1     182.695 182.863 182.417  1.00  0.00    -0.000 C 
BRANCH  13  14
ATOM     14  C   UNL     1     182.241 181.994 183.602  1.00  0.00    -0.000 C 
BRANCH  14  15
ATOM     15  C   UNL     1     183.069 180.705 183.743  1.00  0.00    -0.000 C 
BRANCH  15  16
ATOM     16  C   UNL     1     184.027 180.485 182.561  1.00  0.00    -0.000 C 
BRANCH  16  17
ATOM     17  C   UNL     1     185.504 180.439 182.991  1.00  0.00    -0.000 C 
BRANCH  17  18
ATOM     18  C   UNL     1     186.438 181.065 181.934  1.00  0.00    -0.000 C 
BRANCH  18  19
ATOM     19  C   UNL     1     185.901 182.378 181.338  1.00  0.00    -0.003 C 
ATOM     20  C   UNL     1     186.332 183.614 182.126  1.00  0.00     0.004 C 
ENDBRANCH  18  19
ENDBRANCH  17  18
ENDBRANCH  16  17
ENDBRANCH  15  16
ENDBRANCH  14  15
ENDBRANCH  13  14
ENDBRANCH  12  13
ENDBRANCH   1  12
TORSDOF 16
ENDMDL
MODEL 2
REMARK VINA RESULT:    -4.695      2.998      5.919
REMARK INTER + INTRA:         -11.806
REMARK INTER:                  -9.099
REMARK INTRA:                  -2.707
REMARK UNBOUND:                -2.719
REMARK SMILES CCCCCCCCCCCCCCCCCC(=O)[O-]
REMARK SMILES IDX 10 1 11 2 12 3 13 4 14 5 15 6 16 7 17 8 18 9 19 10 20 11
REMARK SMILES IDX 9 12 8 13 7 14 6 15 5 16 4 17 3 18 2 19 1 20
REMARK H PARENT
REMARK Flexibility Score: inf
ROOT
ATOM      1  C   UNL     1     182.015 182.737 179.161  1.00  0.00     0.000 C 
ENDROOT
BRANCH   1   2
ATOM      2  C   UNL     1     182.032 181.202 179.273  1.00  0.00     0.000 C 
BRANCH   2   3
ATOM      3  C   UNL     1     180.824 180.642 180.047  1.00  0.00     0.000 C 
BRANCH   3   4
ATOM      4  C   UNL     1     181.065 179.300 180.762  1.00  0.00     0.000 C 
BRANCH   4   5
ATOM      5  C   UNL     1     182.280 179.330 181.703  1.00  0.00     0.000 C 
BRANCH   5   6
ATOM      6  C   UNL     1     182.235 180.506 182.696  1.00  0.00     0.000 C 
BRANCH   6   7
ATOM      7  C   UNL     1     183.593 181.216 182.876  1.00  0.00     0.006 C 
BRANCH   7   8
ATOM      8  C   UNL     1     184.641 180.726 181.868  1.00  0.00     0.053 C 
BRANCH   8   9
ATOM      9  C   UNL     1     185.980 181.319 182.171  1.00  0.00     0.041 C 
ATOM     10  O   UNL     1     186.793 180.704 182.910  1.00  0.00    -0.550 OA
ATOM     11  O   UNL     1     186.350 182.529 181.597  1.00  0.00    -0.550 OA
ENDBRANCH   8   9
ENDBRANCH   7   8
ENDBRANCH   6   7
ENDBRANCH   5   6
ENDBRANCH   4   5
ENDBRANCH   3   4
ENDBRANCH   2   3
ENDBRANCH   1   2
BRANCH   1  12
ATOM     12  C   UNL     1     183.225 183.389 179.851  1.00  0.00     0.000 C 
BRANCH  12  13
ATOM     13  C   UNL     1     182.809 184.335 180.993  1.00  0.00    -0.000 C 
BRANCH  13  14
ATOM     14  C   UNL     1     181.293 184.327 181.247  1.00  0.00    -0.000 C 
BRANCH  14  15
ATOM     15  C   UNL     1     180.927 183.783 182.638  1.00  0.00    -0.000 C 
BRANCH  15  16
ATOM     16  C   UNL     1     179.413 183.589 182.818  1.00  0.00    -0.000 C 
BRANCH  16  17
ATOM     17  C   UNL     1     178.760 182.860 181.629  1.00  0.00    -0.000 C 
BRANCH  17  18
ATOM     18  C   UNL     1     177.572 181.978 182.069  1.00  0.00    -0.000 C 
BRANCH  18  19
ATOM     19  C   UNL     1     177.930 180.489 182.206  1.00  0.00    -0.003 C 
ATOM     20  C   UNL     1     176.704 179.577 182.219  1.00  0.00     0.004 C 
ENDBRANCH  18  19
ENDBRANCH  17  18
ENDBRANCH  16  17
ENDBRANCH  15  16
ENDBRANCH  14  15
ENDBRANCH  13  14
ENDBRANCH  12  13
ENDBRANCH   1  12
TORSDOF 16
ENDMDL
MODEL 3
REMARK VINA RESULT:    -4.647      2.834      5.355
REMARK INTER + INTRA:         -11.712
REMARK INTER:                  -9.212
REMARK INTRA:                  -2.500
REMARK UNBOUND:                -2.719
REMARK SMILES CCCCCCCCCCCCCCCCCC(=O)[O-]
REMARK SMILES IDX 10 1 11 2 12 3 13 4 14 5 15 6 16 7 17 8 18 9 19 10 20 11
REMARK SMILES IDX 9 12 8 13 7 14 6 15 5 16 4 17 3 18 2 19 1 20
REMARK H PARENT
REMARK Flexibility Score: inf
ROOT
ATOM      1  C   UNL     1     179.108 183.194 181.535  1.00  0.00     0.000 C 
ENDROOT
BRANCH   1   2
ATOM      2  C   UNL     1     179.339 183.329 183.050  1.00  0.00     0.000 C 
BRANCH   2   3
ATOM      3  C   UNL     1     180.823 183.517 183.418  1.00  0.00     0.000 C 
BRANCH   3   4
ATOM      4  C   UNL     1     181.266 182.842 184.728  1.00  0.00     0.000 C 
BRANCH   4   5
ATOM      5  C   UNL     1     182.194 181.637 184.500  1.00  0.00     0.000 C 
BRANCH   5   6
ATOM      6  C   UNL     1     182.859 181.653 183.112  1.00  0.00     0.000 C 
BRANCH   6   7
ATOM      7  C   UNL     1     183.601 180.345 182.766  1.00  0.00     0.006 C 
BRANCH   7   8
ATOM      8  C   UNL     1     185.123 180.490 182.902  1.00  0.00     0.053 C 
BRANCH   8   9
ATOM      9  C   UNL     1     185.671 181.329 181.791  1.00  0.00     0.041 C 
ATOM     10  O   UNL     1     186.176 182.456 182.038  1.00  0.00    -0.550 OA
ATOM     11  O   UNL     1     185.671 180.845 180.489  1.00  0.00    -0.550 OA
ENDBRANCH   8   9
ENDBRANCH   7   8
ENDBRANCH   6   7
ENDBRANCH   5   6
ENDBRANCH   4   5
ENDBRANCH   3   4
ENDBRANCH   2   3
ENDBRANCH   1   2
BRANCH   1  12
ATOM     12  C   UNL     1     178.706 181.766 181.127  1.00  0.00     0.000 C 
BRANCH  12  13
ATOM     13  C   UNL     1     179.754 180.720 181.547  1.00  0.00    -0.000 C 
BRANCH  13  14
ATOM     14  C   UNL     1     180.724 180.361 180.410  1.00  0.00    -0.000 C 
BRANCH  14  15
ATOM     15  C   UNL     1     180.542 181.255 179.171  1.00  0.00    -0.000 C 
BRANCH  15  16
ATOM     16  C   UNL     1     181.878 181.622 178.506  1.00  0.00    -0.000 C 
BRANCH  16  17
ATOM     17  C   UNL     1     182.833 182.367 179.456  1.00  0.00    -0.000 C 
BRANCH  17  18
ATOM     18  C   UNL     1     182.164 183.597 180.106  1.00  0.00    -0.000 C 
BRANCH  18  19
ATOM     19  C   UNL     1     183.162 184.565 180.764  1.00  0.00    -0.003 C 
ATOM     20  C   UNL     1     182.520 185.880 181.202  1.00  0.00     0.004 C 
ENDBRANCH  18  19
ENDBRANCH  17  18
ENDBRANCH  16  17
ENDBRANCH  15  16
ENDBRANCH  14  15
ENDBRANCH  13  14
ENDBRANCH  12  13
ENDBRANCH   1  12
TORSDOF 16
ENDMDL
MODEL 4
REMARK VINA RESULT:    -4.646      1.547      2.775
REMARK INTER + INTRA:         -11.711
REMARK INTER:                  -8.917
REMARK INTRA:                  -2.794
REMARK UNBOUND:                -2.719
REMARK SMILES CCCCCCCCCCCCCCCCCC(=O)[O-]
REMARK SMILES IDX 10 1 11 2 12 3 13 4 14 5 15 6 16 7 17 8 18 9 19 10 20 11
REMARK SMILES IDX 9 12 8 13 7 14 6 15 5 16 4 17 3 18 2 19 1 20
REMARK H PARENT
REMARK Flexibility Score: inf
ROOT
ATOM      1  C   UNL     1     182.487 182.313 179.195  1.00  0.00     0.000 C 
ENDROOT
BRANCH   1   2
ATOM      2  C   UNL     1     182.693 183.580 180.043  1.00  0.00     0.000 C 
BRANCH   2   3
ATOM      3  C   UNL     1     181.411 184.037 180.765  1.00  0.00     0.000 C 
BRANCH   3   4
ATOM      4  C   UNL     1     181.429 183.889 182.297  1.00  0.00     0.000 C 
BRANCH   4   5
ATOM      5  C   UNL     1     180.284 183.014 182.830  1.00  0.00     0.000 C 
BRANCH   5   6
ATOM      6  C   UNL     1     178.992 183.812 183.081  1.00  0.00     0.000 C 
BRANCH   6   7
ATOM      7  C   UNL     1     177.710 183.067 182.653  1.00  0.00     0.006 C 
BRANCH   7   8
ATOM      8  C   UNL     1     177.953 182.140 181.456  1.00  0.00     0.053 C 
BRANCH   8   9
ATOM      9  C   UNL     1     177.595 180.730 181.803  1.00  0.00     0.041 C 
ATOM     10  O   UNL     1     176.454 180.277 181.522  1.00  0.00    -0.550 OA
ATOM     11  O   UNL     1     178.539 179.898 182.391  1.00  0.00    -0.550 OA
ENDBRANCH   8   9
ENDBRANCH   7   8
ENDBRANCH   6   7
ENDBRANCH   5   6
ENDBRANCH   4   5
ENDBRANCH   3   4
ENDBRANCH   2   3
ENDBRANCH   1   2
BRANCH   1  12
ATOM     12  C   UNL     1     181.098 181.686 179.403  1.00  0.00     0.000 C 
BRANCH  12  13
ATOM     13  C   UNL     1     181.160 180.382 180.220  1.00  0.00    -0.000 C 
BRANCH  13  14
ATOM     14  C   UNL     1     182.580 180.056 180.712  1.00  0.00    -0.000 C 
BRANCH  14  15
ATOM     15  C   UNL     1     182.772 180.355 182.208  1.00  0.00    -0.000 C 
BRANCH  15  16
ATOM     16  C   UNL     1     184.147 180.970 182.516  1.00  0.00    -0.000 C 
BRANCH  16  17
ATOM     17  C   UNL     1     185.138 180.829 181.346  1.00  0.00    -0.000 C 
BRANCH  17  18
ATOM     18  C   UNL     1     185.820 182.169 180.997  1.00  0.00    -0.000 C 
BRANCH  18  19
ATOM     19  C   UNL     1     185.753 183.208 182.130  1.00  0.00    -0.003 C 
ATOM     20  C   UNL     1     186.893 184.224 182.079  1.00  0.00     0.004 C 
ENDBRANCH  18  19
ENDBRANCH  17  18
ENDBRANCH  16  17
ENDBRANCH  15  16
ENDBRANCH  14  15
ENDBRANCH  13  14
ENDBRANCH  12  13
ENDBRANCH   1  12
TORSDOF 16
ENDMDL
MODEL 5
REMARK VINA RESULT:    -4.642      1.200      2.693
REMARK INTER + INTRA:         -11.704
REMARK INTER:                  -9.292
REMARK INTRA:                  -2.412
REMARK UNBOUND:                -2.719
REMARK SMILES CCCCCCCCCCCCCCCCCC(=O)[O-]
REMARK SMILES IDX 10 1 11 2 12 3 13 4 14 5 15 6 16 7 17 8 18 9 19 10 20 11
REMARK SMILES IDX 9 12 8 13 7 14 6 15 5 16 4 17 3 18 2 19 1 20
REMARK H PARENT
REMARK Flexibility Score: inf
ROOT
ATOM      1  C   UNL     1     181.720 181.295 178.625  1.00  0.00     0.000 C 
ENDROOT
BRANCH   1   2
ATOM      2  C   UNL     1     182.353 182.698 178.626  1.00  0.00     0.000 C 
BRANCH   2   3
ATOM      3  C   UNL     1     182.853 183.132 180.016  1.00  0.00     0.000 C 
BRANCH   3   4
ATOM      4  C   UNL     1     182.737 184.637 180.317  1.00  0.00     0.000 C 
BRANCH   4   5
ATOM      5  C   UNL     1     181.804 184.943 181.499  1.00  0.00     0.000 C 
BRANCH   5   6
ATOM      6  C   UNL     1     181.570 183.722 182.406  1.00  0.00     0.000 C 
BRANCH   6   7
ATOM      7  C   UNL     1     180.101 183.549 182.846  1.00  0.00     0.006 C 
BRANCH   7   8
ATOM      8  C   UNL     1     179.183 183.191 181.670  1.00  0.00     0.053 C 
BRANCH   8   9
ATOM      9  C   UNL     1     177.888 182.631 182.166  1.00  0.00     0.041 C 
ATOM     10  O   UNL     1     177.484 181.511 181.757  1.00  0.00    -0.550 OA
ATOM     11  O   UNL     1     177.151 183.324 183.118  1.00  0.00    -0.550 OA
ENDBRANCH   8   9
ENDBRANCH   7   8
ENDBRANCH   6   7
ENDBRANCH   5   6
ENDBRANCH   4   5
ENDBRANCH   3   4
ENDBRANCH   2   3
ENDBRANCH   1   2
BRANCH   1  12
ATOM     12  C   UNL     1     180.639 181.138 179.707  1.00  0.00     0.000 C 
BRANCH  12  13
ATOM     13  C   UNL     1     180.906 179.936 180.632  1.00  0.00    -0.000 C 
BRANCH  13  14
ATOM     14  C   UNL     1     182.397 179.759 180.961  1.00  0.00    -0.000 C 
BRANCH  14  15
ATOM     15  C   UNL     1     182.766 180.304 182.351  1.00  0.00    -0.000 C 
BRANCH  15  16
ATOM     16  C   UNL     1     184.281 180.502 182.525  1.00  0.00    -0.000 C 
BRANCH  16  17
ATOM     17  C   UNL     1     184.992 180.847 181.204  1.00  0.00    -0.000 C 
BRANCH  17  18
ATOM     18  C   UNL     1     186.160 181.834 181.413  1.00  0.00    -0.000 C 
BRANCH  18  19
ATOM     19  C   UNL     1     185.739 183.152 182.085  1.00  0.00    -0.003 C 
ATOM     20  C   UNL     1     186.840 184.210 182.073  1.00  0.00     0.004 C 
ENDBRANCH  18  19
ENDBRANCH  17  18
ENDBRANCH  16  17
ENDBRANCH  15  16
ENDBRANCH  14  15
ENDBRANCH  13  14
ENDBRANCH  12  13
ENDBRANCH   1  12
TORSDOF 16
ENDMDL
MODEL 6
REMARK VINA RESULT:    -4.636      1.771      5.113
REMARK INTER + INTRA:         -11.692
REMARK INTER:                  -9.507
REMARK INTRA:                  -2.185
REMARK UNBOUND:                -2.719
REMARK SMILES CCCCCCCCCCCCCCCCCC(=O)[O-]
REMARK SMILES IDX 10 1 11 2 12 3 13 4 14 5 15 6 16 7 17 8 18 9 19 10 20 11
REMARK SMILES IDX 9 12 8 13 7 14 6 15 5 16 4 17 3 18 2 19 1 20
REMARK H PARENT
REMARK Flexibility Score: inf
ROOT
ATOM      1  C   UNL     1     185.269 183.724 181.806  1.00  0.00     0.000 C 
ENDROOT
BRANCH   1   2
ATOM      2  C   UNL     1     186.060 182.404 181.815  1.00  0.00     0.000 C 
BRANCH   2   3
ATOM      3  C   UNL     1     185.174 181.170 181.563  1.00  0.00     0.000 C 
BRANCH   3   4
ATOM      4  C   UNL     1     184.640 180.473 182.827  1.00  0.00     0.000 C 
BRANCH   4   5
ATOM      5  C   UNL     1     183.108 180.363 182.852  1.00  0.00     0.000 C 
BRANCH   5   6
ATOM      6  C   UNL     1     182.561 179.420 181.765  1.00  0.00     0.000 C 
BRANCH   6   7
ATOM      7  C   UNL     1     181.617 180.113 180.760  1.00  0.00     0.006 C 
BRANCH   7   8
ATOM      8  C   UNL     1     182.386 180.786 179.615  1.00  0.00     0.053 C 
BRANCH   8   9
ATOM      9  C   UNL     1     181.447 181.520 178.712  1.00  0.00     0.041 C 
ATOM     10  O   UNL     1     181.894 182.302 177.832  1.00  0.00    -0.550 OA
ATOM     11  O   UNL     1     180.078 181.303 178.808  1.00  0.00    -0.550 OA
ENDBRANCH   8   9
ENDBRANCH   7   8
ENDBRANCH   6   7
ENDBRANCH   5   6
ENDBRANCH   4   5
ENDBRANCH   3   4
ENDBRANCH   2   3
ENDBRANCH   1   2
BRANCH   1  12
ATOM     12  C   UNL     1     183.873 183.568 181.181  1.00  0.00     0.000 C 
BRANCH  12  13
ATOM     13  C   UNL     1     183.142 184.915 181.033  1.00  0.00    -0.000 C 
BRANCH  13  14
ATOM     14  C   UNL     1     181.649 184.822 181.385  1.00  0.00    -0.000 C 
BRANCH  14  15
ATOM     15  C   UNL     1     181.249 183.435 181.915  1.00  0.00    -0.000 C 
BRANCH  15  16
ATOM     16  C   UNL     1     180.378 183.513 183.179  1.00  0.00    -0.000 C 
BRANCH  16  17
ATOM     17  C   UNL     1     178.877 183.641 182.862  1.00  0.00    -0.000 C 
BRANCH  17  18
ATOM     18  C   UNL     1     178.496 182.918 181.553  1.00  0.00    -0.000 C 
BRANCH  18  19
ATOM     19  C   UNL     1     177.616 181.675 181.769  1.00  0.00    -0.003 C 
ATOM     20  C   UNL     1     178.420 180.431 182.144  1.00  0.00     0.004 C 
ENDBRANCH  18  19
ENDBRANCH  17  18
ENDBRANCH  16  17
ENDBRANCH  15  16
ENDBRANCH  14  15
ENDBRANCH  13  14
ENDBRANCH  12  13
ENDBRANCH   1  12
TORSDOF 16
ENDMDL
MODEL 7
REMARK VINA RESULT:    -4.622      3.027      5.945
REMARK INTER + INTRA:         -11.664
REMARK INTER:                  -8.805
REMARK INTRA:                  -2.859
REMARK UNBOUND:                -2.719
REMARK SMILES CCCCCCCCCCCCCCCCCC(=O)[O-]
REMARK SMILES IDX 10 1 11 2 12 3 13 4 14 5 15 6 16 7 17 8 18 9 19 10 20 11
REMARK SMILES IDX 9 12 8 13 7 14 6 15 5 16 4 17 3 18 2 19 1 20
REMARK H PARENT
REMARK Flexibility Score: inf
ROOT
ATOM      1  C   UNL     1     182.339 179.648 180.794  1.00  0.00     0.000 C 
ENDROOT
BRANCH   1   2
ATOM      2  C   UNL     1     180.925 180.127 180.423  1.00  0.00     0.000 C 
BRANCH   2   3
ATOM      3  C   UNL     1     180.925 181.441 179.619  1.00  0.00     0.000 C 
BRANCH   3   4
ATOM      4  C   UNL     1     181.987 181.532 178.508  1.00  0.00     0.000 C 
BRANCH   4   5
ATOM      5  C   UNL     1     183.013 182.651 178.748  1.00  0.00     0.000 C 
BRANCH   5   6
ATOM      6  C   UNL     1     182.728 183.457 180.027  1.00  0.00     0.000 C 
BRANCH   6   7
ATOM      7  C   UNL     1     183.816 183.307 181.111  1.00  0.00     0.006 C 
BRANCH   7   8
ATOM      8  C   UNL     1     184.911 182.315 180.697  1.00  0.00     0.053 C 
BRANCH   8   9
ATOM      9  C   UNL     1     185.999 182.275 181.722  1.00  0.00     0.041 C 
ATOM     10  O   UNL     1     186.526 183.344 182.129  1.00  0.00    -0.550 OA
ATOM     11  O   UNL     1     186.396 181.060 182.267  1.00  0.00    -0.550 OA
ENDBRANCH   8   9
ENDBRANCH   7   8
ENDBRANCH   6   7
ENDBRANCH   5   6
ENDBRANCH   4   5
ENDBRANCH   3   4
ENDBRANCH   2   3
ENDBRANCH   1   2
BRANCH   1  12
ATOM     12  C   UNL     1     182.732 180.034 182.230  1.00  0.00     0.000 C 
BRANCH  12  13
ATOM     13  C   UNL     1     181.616 180.809 182.955  1.00  0.00    -0.000 C 
BRANCH  13  14
ATOM     14  C   UNL     1     182.160 181.934 183.850  1.00  0.00    -0.000 C 
BRANCH  14  15
ATOM     15  C   UNL     1     181.204 183.136 183.937  1.00  0.00    -0.000 C 
BRANCH  15  16
ATOM     16  C   UNL     1     180.167 183.150 182.803  1.00  0.00    -0.000 C 
BRANCH  16  17
ATOM     17  C   UNL     1     178.857 183.853 183.202  1.00  0.00    -0.000 C 
BRANCH  17  18
ATOM     18  C   UNL     1     177.613 183.109 182.672  1.00  0.00    -0.000 C 
BRANCH  18  19
ATOM     19  C   UNL     1     177.942 182.013 181.645  1.00  0.00    -0.003 C 
ATOM     20  C   UNL     1     177.652 180.604 182.159  1.00  0.00     0.004 C 
ENDBRANCH  18  19
ENDBRANCH  17  18
ENDBRANCH  16  17
ENDBRANCH  15  16
ENDBRANCH  14  15
ENDBRANCH  13  14
ENDBRANCH  12  13
ENDBRANCH   1  12
TORSDOF 16
ENDMDL
MODEL 8
REMARK VINA RESULT:    -4.590      2.899      5.338
REMARK INTER + INTRA:         -11.602
REMARK INTER:                  -9.531
REMARK INTRA:                  -2.071
REMARK UNBOUND:                -2.719
REMARK SMILES CCCCCCCCCCCCCCCCCC(=O)[O-]
REMARK SMILES IDX 10 1 11 2 12 3 13 4 14 5 15 6 16 7 17 8 18 9 19 10 20 11
REMARK SMILES IDX 9 12 8 13 7 14 6 15 5 16 4 17 3 18 2 19 1 20
REMARK H PARENT
REMARK Flexibility Score: inf
ROOT
ATOM      1  C   UNL     1     178.461 182.864 181.664  1.00  0.00     0.000 C 
ENDROOT
BRANCH   1   2
ATOM      2  C   UNL     1     179.027 183.589 182.898  1.00  0.00     0.000 C 
BRANCH   2   3
ATOM      3  C   UNL     1     180.527 183.915 182.769  1.00  0.00     0.000 C 
BRANCH   3   4
ATOM      4  C   UNL     1     181.044 184.075 181.329  1.00  0.00     0.000 C 
BRANCH   4   5
ATOM      5  C   UNL     1     181.934 185.315 181.144  1.00  0.00     0.000 C 
BRANCH   5   6
ATOM      6  C   UNL     1     183.413 184.958 180.914  1.00  0.00     0.000 C 
BRANCH   6   7
ATOM      7  C   UNL     1     183.729 183.462 181.122  1.00  0.00     0.006 C 
BRANCH   7   8
ATOM      8  C   UNL     1     185.105 183.246 181.766  1.00  0.00     0.053 C 
BRANCH   8   9
ATOM      9  C   UNL     1     185.637 181.890 181.426  1.00  0.00     0.041 C 
ATOM     10  O   UNL     1     185.475 181.416 180.270  1.00  0.00    -0.550 OA
ATOM     11  O   UNL     1     186.355 181.168 182.371  1.00  0.00    -0.550 OA
ENDBRANCH   8   9
ENDBRANCH   7   8
ENDBRANCH   6   7
ENDBRANCH   5   6
ENDBRANCH   4   5
ENDBRANCH   3   4
ENDBRANCH   2   3
ENDBRANCH   1   2
BRANCH   1  12
ATOM     12  C   UNL     1     177.840 181.502 182.017  1.00  0.00     0.000 C 
BRANCH  12  13
ATOM     13  C   UNL     1     178.885 180.372 182.053  1.00  0.00    -0.000 C 
BRANCH  13  14
ATOM     14  C   UNL     1     180.005 180.565 181.018  1.00  0.00    -0.000 C 
BRANCH  14  15
ATOM     15  C   UNL     1     180.950 179.355 180.934  1.00  0.00    -0.000 C 
BRANCH  15  16
ATOM     16  C   UNL     1     182.432 179.760 180.951  1.00  0.00    -0.000 C 
BRANCH  16  17
ATOM     17  C   UNL     1     183.019 179.814 182.372  1.00  0.00    -0.000 C 
BRANCH  17  18
ATOM     18  C   UNL     1     182.505 181.033 183.168  1.00  0.00    -0.000 C 
BRANCH  18  19
ATOM     19  C   UNL     1     182.778 180.942 184.679  1.00  0.00    -0.003 C 
ATOM     20  C   UNL     1     182.007 181.980 185.491  1.00  0.00     0.004 C 
ENDBRANCH  18  19
ENDBRANCH  17  18
ENDBRANCH  16  17
ENDBRANCH  15  16
ENDBRANCH  14  15
ENDBRANCH  13  14
ENDBRANCH  12  13
ENDBRANCH   1  12
TORSDOF 16
ENDMDL
MODEL 9
REMARK VINA RESULT:    -4.573      2.162      4.316
REMARK INTER + INTRA:         -11.570
REMARK INTER:                  -9.051
REMARK INTRA:                  -2.519
REMARK UNBOUND:                -2.719
REMARK SMILES CCCCCCCCCCCCCCCCCC(=O)[O-]
REMARK SMILES IDX 10 1 11 2 12 3 13 4 14 5 15 6 16 7 17 8 18 9 19 10 20 11
REMARK SMILES IDX 9 12 8 13 7 14 6 15 5 16 4 17 3 18 2 19 1 20
REMARK H PARENT
REMARK Flexibility Score: inf
ROOT
ATOM      1  C   UNL     1     177.595 180.824 182.050  1.00  0.00     0.000 C 
ENDROOT
BRANCH   1   2
ATOM      2  C   UNL     1     178.001 182.246 181.625  1.00  0.00     0.000 C 
BRANCH   2   3
ATOM      3  C   UNL     1     177.914 183.266 182.776  1.00  0.00     0.000 C 
BRANCH   3   4
ATOM      4  C   UNL     1     179.256 183.882 183.213  1.00  0.00     0.000 C 
BRANCH   4   5
ATOM      5  C   UNL     1     180.469 183.216 182.544  1.00  0.00     0.000 C 
BRANCH   5   6
ATOM      6  C   UNL     1     181.523 184.234 182.073  1.00  0.00     0.000 C 
BRANCH   6   7
ATOM      7  C   UNL     1     182.290 183.792 180.809  1.00  0.00     0.006 C 
BRANCH   7   8
ATOM      8  C   UNL     1     181.475 182.816 179.950  1.00  0.00     0.053 C 
BRANCH   8   9
ATOM      9  C   UNL     1     182.292 182.322 178.799  1.00  0.00     0.041 C 
ATOM     10  O   UNL     1     183.524 182.581 178.738  1.00  0.00    -0.550 OA
ATOM     11  O   UNL     1     181.705 181.533 177.818  1.00  0.00    -0.550 OA
ENDBRANCH   8   9
ENDBRANCH   7   8
ENDBRANCH   6   7
ENDBRANCH   5   6
ENDBRANCH   4   5
ENDBRANCH   3   4
ENDBRANCH   2   3
ENDBRANCH   1   2
BRANCH   1  12
ATOM     12  C   UNL     1     178.804 179.884 182.188  1.00  0.00     0.000 C 
BRANCH  12  13
ATOM     13  C   UNL     1     179.847 180.103 181.076  1.00  0.00    -0.000 C 
BRANCH  13  14
ATOM     14  C   UNL     1     180.899 178.984 181.020  1.00  0.00    -0.000 C 
BRANCH  14  15
ATOM     15  C   UNL     1     182.330 179.503 181.244  1.00  0.00    -0.000 C 
BRANCH  15  16
ATOM     16  C   UNL     1     182.500 180.198 182.605  1.00  0.00    -0.000 C 
BRANCH  16  17
ATOM     17  C   UNL     1     183.893 180.827 182.783  1.00  0.00    -0.000 C 
BRANCH  17  18
ATOM     18  C   UNL     1     184.713 180.804 181.475  1.00  0.00    -0.000 C 
BRANCH  18  19
ATOM     19  C   UNL     1     186.093 181.471 181.602  1.00  0.00    -0.003 C 
ATOM     20  C   UNL     1     186.015 182.992 181.717  1.00  0.00     0.004 C 
ENDBRANCH  18  19
ENDBRANCH  17  18
ENDBRANCH  16  17
ENDBRANCH  15  16
ENDBRANCH  14  15
ENDBRANCH  13  14
ENDBRANCH  12  13
ENDBRANCH   1  12
TORSDOF 16
ENDMDL
