MODEL 1
REMARK VINA RESULT:    46.882      0.000      0.000
REMARK INTER + INTRA:          51.076
REMARK INTER:                  50.993
REMARK INTRA:                   0.082
REMARK UNBOUND:                 0.082
REMARK SMILES C[C@H]1[C@H]2C3=CC[C@@H]4[C@@]5(C)CC[C@@H](O)C(C)(C)[C@@H]5CC[C@]4(C)[C@]3(C)CC[C@@]2(C(=O)[O-])CC[C@@H]1C
REMARK SMILES IDX 26 1 30 2 25 3 3 4 31 5 24 6 4 7 2 8 32 9 22 10 5 11 1 12
REMARK SMILES IDX 33 13 23 14 20 15 6 16 7 17 19 18 21 19 8 20 18 21 17 22
REMARK SMILES IDX 10 23 9 24 14 25 11 26 12 27 15 28 16 29 27 30 28 31 29 32
REMARK SMILES IDX 13 33
REMARK H PARENT 13 34
REMARK Flexibility Score: inf
ROOT
ATOM      1  C   UNL     1       5.793  76.877   1.247  1.00  0.00     0.017 C 
ATOM      2  C   UNL     1       4.244  76.814   1.428  1.00  0.00     0.014 C 
ATOM      3  C   UNL     1       6.440  76.849   2.644  1.00  0.00     0.014 C 
ATOM      4  C   UNL     1       6.219  78.182   0.468  1.00  0.00     0.030 C 
ATOM      5  C   UNL     1       3.518  77.352   0.200  1.00  0.00     0.004 C 
ATOM      6  C   UNL     1       7.966  76.932   2.576  1.00  0.00     0.013 C 
ATOM      7  C   UNL     1       7.669  78.658   0.721  1.00  0.00    -0.063 C 
ATOM      8  C   UNL     1       5.164  79.347   0.501  1.00  0.00    -0.003 C 
ATOM      9  C   UNL     1       3.730  78.875   0.067  1.00  0.00    -0.011 C 
ATOM     10  C   UNL     1       8.526  78.249   1.930  1.00  0.00    -0.006 C 
ATOM     11  C   UNL     1       8.181  79.515  -0.173  1.00  0.00    -0.027 C 
ATOM     12  C   UNL     1       5.118  80.121   1.828  1.00  0.00     0.008 C 
ATOM     13  C   UNL     1       3.404  79.318  -1.368  1.00  0.00     0.008 C 
ATOM     14  C   UNL     1       8.383  79.401   2.976  1.00  0.00     0.017 C 
ATOM     15  C   UNL     1      10.082  78.076   1.507  1.00  0.00    -0.020 C 
ATOM     16  C   UNL     1       9.625  79.887  -0.280  1.00  0.00     0.032 C 
ATOM     17  C   UNL     1      10.628  79.415   0.832  1.00  0.00     0.006 C 
ATOM     18  C   UNL     1      10.269  76.919   0.447  1.00  0.00     0.008 C 
ATOM     19  C   UNL     1      10.896  77.715   2.813  1.00  0.00     0.012 C 
ATOM     20  C   UNL     1      12.166  79.371   0.281  1.00  0.00    -0.025 C 
ATOM     21  C   UNL     1      11.549  76.996  -0.442  1.00  0.00     0.005 C 
ATOM     22  C   UNL     1      12.649  77.882   0.184  1.00  0.00     0.003 C 
ATOM     23  C   UNL     1      13.141  80.106   1.256  1.00  0.00     0.010 C 
ATOM     24  C   UNL     1      12.297  80.125  -1.093  1.00  0.00     0.012 C 
ATOM     25  C   UNL     1      14.146  77.638  -0.253  1.00  0.00    -0.006 C 
ATOM     26  C   UNL     1      14.640  79.939   0.891  1.00  0.00     0.033 C 
ATOM     27  C   UNL     1      15.078  78.469   0.709  1.00  0.00     0.120 C 
ATOM     28  C   UNL     1      14.505  76.130  -0.082  1.00  0.00     0.014 C 
ATOM     29  C   UNL     1      14.438  77.983  -1.739  1.00  0.00     0.014 C 
ENDROOT
BRANCH   1  30
ATOM     30  C   UNL     1       6.238  75.620   0.489  1.00  0.00     0.048 C 
ATOM     31  O   UNL     1       6.094  75.552  -0.763  1.00  0.00    -0.550 OA
ATOM     32  O   UNL     1       6.737  74.508   1.159  1.00  0.00    -0.550 OA
ENDBRANCH   1  30
BRANCH  27  33
ATOM     33  O   UNL     1      15.122  77.879   1.988  1.00  0.00    -0.393 OA
ATOM     34  H   UNL     1      16.077  77.756   2.230  1.00  0.00     0.210 HD
ENDBRANCH  27  33
TORSDOF 2
ENDMDL
