MODEL 1
REMARK VINA RESULT:    -2.232      0.000      0.000
REMARK INTER + INTRA:          -4.510
REMARK INTER:                  -3.798
REMARK INTRA:                  -0.712
REMARK UNBOUND:                -0.712
REMARK SMILES CCCCCCCCCCCCCC(=O)[O-]
REMARK SMILES IDX 8 1 9 2 10 3 11 4 12 5 13 6 14 7 15 8 16 9 7 10 6 11 5 12
REMARK SMILES IDX 4 13 3 14 2 15 1 16
REMARK H PARENT
REMARK Flexibility Score: inf
ROOT
ATOM      1  C   UNL     1       0.058  60.371  -4.418  1.00  0.00     0.000 C 
ENDROOT
BRANCH   1   2
ATOM      2  C   UNL     1      -1.473  60.481  -4.319  1.00  0.00     0.000 C 
BRANCH   2   3
ATOM      3  C   UNL     1      -2.077  59.508  -3.295  1.00  0.00     0.000 C 
BRANCH   3   4
ATOM      4  C   UNL     1      -3.453  59.011  -3.754  1.00  0.00     0.000 C 
BRANCH   4   5
ATOM      5  C   UNL     1      -3.526  58.934  -5.286  1.00  0.00     0.006 C 
BRANCH   5   6
ATOM      6  C   UNL     1      -4.511  59.955  -5.873  1.00  0.00     0.053 C 
BRANCH   6   7
ATOM      7  C   UNL     1      -4.169  60.309  -7.288  1.00  0.00     0.041 C 
ATOM      8  O   UNL     1      -3.837  59.409  -8.103  1.00  0.00    -0.550 OA
ATOM      9  O   UNL     1      -4.250  61.628  -7.715  1.00  0.00    -0.550 OA
ENDBRANCH   6   7
ENDBRANCH   5   6
ENDBRANCH   4   5
ENDBRANCH   3   4
ENDBRANCH   2   3
ENDBRANCH   1   2
BRANCH   1  10
ATOM     10  C   UNL     1       0.573  59.356  -5.459  1.00  0.00     0.000 C 
BRANCH  10  11
ATOM     11  C   UNL     1      -0.405  59.050  -6.610  1.00  0.00    -0.000 C 
BRANCH  11  12
ATOM     12  C   UNL     1       0.251  58.877  -7.995  1.00  0.00    -0.000 C 
BRANCH  12  13
ATOM     13  C   UNL     1       1.790  58.875  -7.994  1.00  0.00    -0.000 C 
BRANCH  13  14
ATOM     14  C   UNL     1       2.389  60.289  -8.086  1.00  0.00    -0.000 C 
BRANCH  14  15
ATOM     15  C   UNL     1       3.908  60.301  -7.855  1.00  0.00    -0.003 C 
ATOM     16  C   UNL     1       4.553  58.934  -8.077  1.00  0.00     0.004 C 
ENDBRANCH  14  15
ENDBRANCH  13  14
ENDBRANCH  12  13
ENDBRANCH  11  12
ENDBRANCH  10  11
ENDBRANCH   1  10
TORSDOF 12
ENDMDL
MODEL 2
REMARK VINA RESULT:    -1.987      1.506      2.147
REMARK INTER + INTRA:          -4.092
REMARK INTER:                  -3.479
REMARK INTRA:                  -0.613
REMARK UNBOUND:                -0.712
REMARK SMILES CCCCCCCCCCCCCC(=O)[O-]
REMARK SMILES IDX 8 1 9 2 10 3 11 4 12 5 13 6 14 7 15 8 16 9 7 10 6 11 5 12
REMARK SMILES IDX 4 13 3 14 2 15 1 16
REMARK H PARENT
REMARK Flexibility Score: inf
ROOT
ATOM      1  C   UNL     1       1.141  60.509  -4.500  1.00  0.00     0.000 C 
ENDROOT
BRANCH   1   2
ATOM      2  C   UNL     1       0.084  60.446  -3.383  1.00  0.00     0.000 C 
BRANCH   2   3
ATOM      3  C   UNL     1      -1.339  60.721  -3.891  1.00  0.00     0.000 C 
BRANCH   3   4
ATOM      4  C   UNL     1      -2.326  59.683  -3.344  1.00  0.00     0.000 C 
BRANCH   4   5
ATOM      5  C   UNL     1      -3.445  59.400  -4.358  1.00  0.00     0.006 C 
BRANCH   5   6
ATOM      6  C   UNL     1      -2.894  59.006  -5.735  1.00  0.00     0.053 C 
BRANCH   6   7
ATOM      7  C   UNL     1      -3.448  59.872  -6.825  1.00  0.00     0.041 C 
ATOM      8  O   UNL     1      -3.468  59.460  -8.014  1.00  0.00    -0.550 OA
ATOM      9  O   UNL     1      -3.973  61.123  -6.522  1.00  0.00    -0.550 OA
ENDBRANCH   6   7
ENDBRANCH   5   6
ENDBRANCH   4   5
ENDBRANCH   3   4
ENDBRANCH   2   3
ENDBRANCH   1   2
BRANCH   1  10
ATOM     10  C   UNL     1       2.263  59.457  -4.396  1.00  0.00     0.000 C 
BRANCH  10  11
ATOM     11  C   UNL     1       2.863  59.008  -5.743  1.00  0.00    -0.000 C 
BRANCH  11  12
ATOM     12  C   UNL     1       3.371  60.151  -6.644  1.00  0.00    -0.000 C 
BRANCH  12  13
ATOM     13  C   UNL     1       3.758  59.734  -8.075  1.00  0.00    -0.000 C 
BRANCH  13  14
ATOM     14  C   UNL     1       5.044  58.892  -8.125  1.00  0.00    -0.000 C 
BRANCH  14  15
ATOM     15  C   UNL     1       6.315  59.756  -8.081  1.00  0.00    -0.003 C 
ATOM     16  C   UNL     1       7.538  58.987  -7.584  1.00  0.00     0.004 C 
ENDBRANCH  14  15
ENDBRANCH  13  14
ENDBRANCH  12  13
ENDBRANCH  11  12
ENDBRANCH  10  11
ENDBRANCH   1  10
TORSDOF 12
ENDMDL
MODEL 3
REMARK VINA RESULT:    -1.742      2.956      6.391
REMARK INTER + INTRA:          -3.676
REMARK INTER:                  -2.920
REMARK INTRA:                  -0.756
REMARK UNBOUND:                -0.712
REMARK SMILES CCCCCCCCCCCCCC(=O)[O-]
REMARK SMILES IDX 8 1 9 2 10 3 11 4 12 5 13 6 14 7 15 8 16 9 7 10 6 11 5 12
REMARK SMILES IDX 4 13 3 14 2 15 1 16
REMARK H PARENT
REMARK Flexibility Score: inf
ROOT
ATOM      1  C   UNL     1      -1.082  60.644  -3.460  1.00  0.00     0.000 C 
ENDROOT
BRANCH   1   2
ATOM      2  C   UNL     1       0.457  60.643  -3.502  1.00  0.00     0.000 C 
BRANCH   2   3
ATOM      3  C   UNL     1       1.017  60.206  -4.864  1.00  0.00     0.000 C 
BRANCH   3   4
ATOM      4  C   UNL     1       2.442  59.659  -4.721  1.00  0.00     0.000 C 
BRANCH   4   5
ATOM      5  C   UNL     1       2.863  58.887  -5.980  1.00  0.00     0.006 C 
BRANCH   5   6
ATOM      6  C   UNL     1       2.258  59.483  -7.258  1.00  0.00     0.053 C 
BRANCH   6   7
ATOM      7  C   UNL     1       3.142  60.536  -7.854  1.00  0.00     0.041 C 
ATOM      8  O   UNL     1       2.686  61.683  -8.097  1.00  0.00    -0.550 OA
ATOM      9  O   UNL     1       4.479  60.259  -8.110  1.00  0.00    -0.550 OA
ENDBRANCH   6   7
ENDBRANCH   5   6
ENDBRANCH   4   5
ENDBRANCH   3   4
ENDBRANCH   2   3
ENDBRANCH   1   2
BRANCH   1  10
ATOM     10  C   UNL     1      -1.749  59.344  -3.952  1.00  0.00     0.000 C 
BRANCH  10  11
ATOM     11  C   UNL     1      -3.104  59.017  -3.295  1.00  0.00    -0.000 C 
BRANCH  11  12
ATOM     12  C   UNL     1      -4.286  58.875  -4.275  1.00  0.00    -0.000 C 
BRANCH  12  13
ATOM     13  C   UNL     1      -3.923  59.014  -5.764  1.00  0.00    -0.000 C 
BRANCH  13  14
ATOM     14  C   UNL     1      -5.076  59.579  -6.611  1.00  0.00    -0.000 C 
BRANCH  14  15
ATOM     15  C   UNL     1      -4.679  60.854  -7.370  1.00  0.00    -0.003 C 
ATOM     16  C   UNL     1      -4.715  62.104  -6.492  1.00  0.00     0.004 C 
ENDBRANCH  14  15
ENDBRANCH  13  14
ENDBRANCH  12  13
ENDBRANCH  11  12
ENDBRANCH  10  11
ENDBRANCH   1  10
TORSDOF 12
ENDMDL
MODEL 4
REMARK VINA RESULT:    -1.578      3.303      6.597
REMARK INTER + INTRA:          -3.397
REMARK INTER:                  -2.665
REMARK INTRA:                  -0.732
REMARK UNBOUND:                -0.712
REMARK SMILES CCCCCCCCCCCCCC(=O)[O-]
REMARK SMILES IDX 8 1 9 2 10 3 11 4 12 5 13 6 14 7 15 8 16 9 7 10 6 11 5 12
REMARK SMILES IDX 4 13 3 14 2 15 1 16
REMARK H PARENT
REMARK Flexibility Score: inf
ROOT
ATOM      1  C   UNL     1       0.552  60.306  -4.014  1.00  0.00     0.000 C 
ENDROOT
BRANCH   1   2
ATOM      2  C   UNL     1       1.130  60.111  -5.427  1.00  0.00     0.000 C 
BRANCH   2   3
ATOM      3  C   UNL     1       0.291  59.154  -6.288  1.00  0.00     0.000 C 
BRANCH   3   4
ATOM      4  C   UNL     1       0.671  59.272  -7.768  1.00  0.00     0.000 C 
BRANCH   4   5
ATOM      5  C   UNL     1       2.057  59.913  -7.932  1.00  0.00     0.006 C 
BRANCH   5   6
ATOM      6  C   UNL     1       3.193  58.904  -7.717  1.00  0.00     0.053 C 
BRANCH   6   7
ATOM      7  C   UNL     1       4.538  59.563  -7.760  1.00  0.00     0.041 C 
ATOM      8  O   UNL     1       5.576  58.901  -7.501  1.00  0.00    -0.550 OA
ATOM      9  O   UNL     1       4.647  60.901  -8.119  1.00  0.00    -0.550 OA
ENDBRANCH   6   7
ENDBRANCH   5   6
ENDBRANCH   4   5
ENDBRANCH   3   4
ENDBRANCH   2   3
ENDBRANCH   1   2
BRANCH   1  10
ATOM     10  C   UNL     1      -0.983  60.435  -3.950  1.00  0.00     0.000 C 
BRANCH  10  11
ATOM     11  C   UNL     1      -1.700  59.313  -3.173  1.00  0.00    -0.000 C 
BRANCH  11  12
ATOM     12  C   UNL     1      -3.234  59.295  -3.320  1.00  0.00    -0.000 C 
BRANCH  12  13
ATOM     13  C   UNL     1      -3.793  60.171  -4.455  1.00  0.00    -0.000 C 
BRANCH  13  14
ATOM     14  C   UNL     1      -4.611  59.368  -5.482  1.00  0.00    -0.000 C 
BRANCH  14  15
ATOM     15  C   UNL     1      -3.756  58.880  -6.663  1.00  0.00    -0.003 C 
ATOM     16  C   UNL     1      -3.987  59.690  -7.938  1.00  0.00     0.004 C 
ENDBRANCH  14  15
ENDBRANCH  13  14
ENDBRANCH  12  13
ENDBRANCH  11  12
ENDBRANCH  10  11
ENDBRANCH   1  10
TORSDOF 12
ENDMDL
MODEL 5
REMARK VINA RESULT:    -0.644      3.203      6.556
REMARK INTER + INTRA:          -1.808
REMARK INTER:                  -1.786
REMARK INTRA:                  -0.022
REMARK UNBOUND:                -0.712
REMARK SMILES CCCCCCCCCCCCCC(=O)[O-]
REMARK SMILES IDX 8 1 9 2 10 3 11 4 12 5 13 6 14 7 15 8 16 9 7 10 6 11 5 12
REMARK SMILES IDX 4 13 3 14 2 15 1 16
REMARK H PARENT
REMARK Flexibility Score: inf
ROOT
ATOM      1  C   UNL     1      -1.619  59.565  -5.904  1.00  0.00     0.000 C 
ENDROOT
BRANCH   1   2
ATOM      2  C   UNL     1      -0.310  59.138  -5.217  1.00  0.00     0.000 C 
BRANCH   2   3
ATOM      3  C   UNL     1       0.706  60.285  -5.104  1.00  0.00     0.000 C 
BRANCH   3   4
ATOM      4  C   UNL     1       1.632  60.321  -6.325  1.00  0.00     0.000 C 
BRANCH   4   5
ATOM      5  C   UNL     1       1.674  58.954  -7.024  1.00  0.00     0.006 C 
BRANCH   5   6
ATOM      6  C   UNL     1       2.750  58.893  -8.117  1.00  0.00     0.053 C 
BRANCH   6   7
ATOM      7  C   UNL     1       4.020  59.561  -7.685  1.00  0.00     0.041 C 
ATOM      8  O   UNL     1       4.317  60.702  -8.124  1.00  0.00    -0.550 OA
ATOM      9  O   UNL     1       4.859  58.935  -6.771  1.00  0.00    -0.550 OA
ENDBRANCH   6   7
ENDBRANCH   5   6
ENDBRANCH   4   5
ENDBRANCH   3   4
ENDBRANCH   2   3
ENDBRANCH   1   2
BRANCH   1  10
ATOM     10  C   UNL     1      -1.889  58.894  -7.267  1.00  0.00     0.000 C 
BRANCH  10  11
ATOM     11  C   UNL     1      -3.363  58.899  -7.716  1.00  0.00    -0.000 C 
BRANCH  11  12
ATOM     12  C   UNL     1      -4.033  60.288  -7.739  1.00  0.00    -0.000 C 
BRANCH  12  13
ATOM     13  C   UNL     1      -4.954  60.591  -6.544  1.00  0.00    -0.000 C 
BRANCH  13  14
ATOM     14  C   UNL     1      -4.859  59.531  -5.433  1.00  0.00    -0.000 C 
BRANCH  14  15
ATOM     15  C   UNL     1      -4.090  60.037  -4.202  1.00  0.00    -0.003 C 
ATOM     16  C   UNL     1      -3.558  58.903  -3.327  1.00  0.00     0.004 C 
ENDBRANCH  14  15
ENDBRANCH  13  14
ENDBRANCH  12  13
ENDBRANCH  11  12
ENDBRANCH  10  11
ENDBRANCH   1  10
TORSDOF 12
ENDMDL
MODEL 6
REMARK VINA RESULT:    -0.485      3.034      6.224
REMARK INTER + INTRA:          -1.536
REMARK INTER:                  -0.902
REMARK INTRA:                  -0.634
REMARK UNBOUND:                -0.712
REMARK SMILES CCCCCCCCCCCCCC(=O)[O-]
REMARK SMILES IDX 8 1 9 2 10 3 11 4 12 5 13 6 14 7 15 8 16 9 7 10 6 11 5 12
REMARK SMILES IDX 4 13 3 14 2 15 1 16
REMARK H PARENT
REMARK Flexibility Score: inf
ROOT
ATOM      1  C   UNL     1      -0.513  59.244  -6.820  1.00  0.00     0.000 C 
ENDROOT
BRANCH   1   2
ATOM      2  C   UNL     1       0.974  58.875  -6.970  1.00  0.00     0.000 C 
BRANCH   2   3
ATOM      3  C   UNL     1       1.881  60.105  -7.126  1.00  0.00     0.000 C 
BRANCH   3   4
ATOM      4  C   UNL     1       2.480  60.520  -5.777  1.00  0.00     0.000 C 
BRANCH   4   5
ATOM      5  C   UNL     1       1.376  60.787  -4.744  1.00  0.00     0.006 C 
BRANCH   5   6
ATOM      6  C   UNL     1       1.566  59.961  -3.464  1.00  0.00     0.053 C 
BRANCH   6   7
ATOM      7  C   UNL     1       0.774  60.518  -2.320  1.00  0.00     0.041 C 
ATOM      8  O   UNL     1      -0.408  60.911  -2.500  1.00  0.00    -0.550 OA
ATOM      9  O   UNL     1       1.331  60.571  -1.049  1.00  0.00    -0.550 OA
ENDBRANCH   6   7
ENDBRANCH   5   6
ENDBRANCH   4   5
ENDBRANCH   3   4
ENDBRANCH   2   3
ENDBRANCH   1   2
BRANCH   1  10
ATOM     10  C   UNL     1      -1.333  59.183  -8.125  1.00  0.00     0.000 C 
BRANCH  10  11
ATOM     11  C   UNL     1      -2.834  58.885  -7.938  1.00  0.00    -0.000 C 
BRANCH  11  12
ATOM     12  C   UNL     1      -3.730  60.129  -7.771  1.00  0.00    -0.000 C 
BRANCH  12  13
ATOM     13  C   UNL     1      -4.801  60.020  -6.670  1.00  0.00    -0.000 C 
BRANCH  13  14
ATOM     14  C   UNL     1      -4.231  60.243  -5.258  1.00  0.00    -0.000 C 
BRANCH  14  15
ATOM     15  C   UNL     1      -3.965  58.924  -4.516  1.00  0.00    -0.003 C 
ATOM     16  C   UNL     1      -2.751  58.998  -3.591  1.00  0.00     0.004 C 
ENDBRANCH  14  15
ENDBRANCH  13  14
ENDBRANCH  12  13
ENDBRANCH  11  12
ENDBRANCH  10  11
ENDBRANCH   1  10
TORSDOF 12
ENDMDL
MODEL 7
REMARK VINA RESULT:    -0.210      1.602      2.344
REMARK INTER + INTRA:          -1.069
REMARK INTER:                  -0.121
REMARK INTRA:                  -0.947
REMARK UNBOUND:                -0.712
REMARK SMILES CCCCCCCCCCCCCC(=O)[O-]
REMARK SMILES IDX 8 1 9 2 10 3 11 4 12 5 13 6 14 7 15 8 16 9 7 10 6 11 5 12
REMARK SMILES IDX 4 13 3 14 2 15 1 16
REMARK H PARENT
REMARK Flexibility Score: inf
ROOT
ATOM      1  C   UNL     1       0.744  60.029  -4.785  1.00  0.00     0.000 C 
ENDROOT
BRANCH   1   2
ATOM      2  C   UNL     1      -0.762  60.010  -5.099  1.00  0.00     0.000 C 
BRANCH   2   3
ATOM      3  C   UNL     1      -1.636  60.101  -3.839  1.00  0.00     0.000 C 
BRANCH   3   4
ATOM      4  C   UNL     1      -2.632  58.937  -3.777  1.00  0.00     0.000 C 
BRANCH   4   5
ATOM      5  C   UNL     1      -4.066  59.425  -4.033  1.00  0.00     0.006 C 
BRANCH   5   6
ATOM      6  C   UNL     1      -4.582  59.013  -5.418  1.00  0.00     0.053 C 
BRANCH   6   7
ATOM      7  C   UNL     1      -4.345  60.082  -6.440  1.00  0.00     0.041 C 
ATOM      8  O   UNL     1      -4.219  61.283  -6.083  1.00  0.00    -0.550 OA
ATOM      9  O   UNL     1      -4.231  59.748  -7.784  1.00  0.00    -0.550 OA
ENDBRANCH   6   7
ENDBRANCH   5   6
ENDBRANCH   4   5
ENDBRANCH   3   4
ENDBRANCH   2   3
ENDBRANCH   1   2
BRANCH   1  10
ATOM     10  C   UNL     1       1.555  58.875  -5.409  1.00  0.00     0.000 C 
BRANCH  10  11
ATOM     11  C   UNL     1       3.011  59.225  -5.776  1.00  0.00    -0.000 C 
BRANCH  11  12
ATOM     12  C   UNL     1       3.338  59.160  -7.282  1.00  0.00    -0.000 C 
BRANCH  12  13
ATOM     13  C   UNL     1       2.795  60.331  -8.121  1.00  0.00    -0.000 C 
BRANCH  13  14
ATOM     14  C   UNL     1       3.398  61.686  -7.715  1.00  0.00    -0.000 C 
BRANCH  14  15
ATOM     15  C   UNL     1       2.414  62.551  -6.911  1.00  0.00    -0.003 C 
ATOM     16  C   UNL     1       2.490  64.033  -7.277  1.00  0.00     0.004 C 
ENDBRANCH  14  15
ENDBRANCH  13  14
ENDBRANCH  12  13
ENDBRANCH  11  12
ENDBRANCH  10  11
ENDBRANCH   1  10
TORSDOF 12
ENDMDL
