MODEL 1
REMARK VINA RESULT:    -7.832      0.000      0.000
REMARK INTER + INTRA:          -9.750
REMARK INTER:                  -9.434
REMARK INTRA:                  -0.316
REMARK UNBOUND:                -0.316
REMARK SMILES O=c1c(O)c(-c2ccc(O)c(O)c2)oc2cc(O)cc(O)c12
REMARK SMILES IDX 5 1 3 2 2 3 1 4 22 5 20 6 19 7 17 8 16 9 15 10 14 11 6 12
REMARK SMILES IDX 7 13 8 14 9 15 13 16 11 17 10 18 12 20 4 22 21 24 18 26
REMARK H PARENT 10 19 12 21 4 23 21 25 18 27
REMARK Flexibility Score: inf
ROOT
ATOM      1  C   UNL     1      19.081  88.570 112.935  1.00  0.00     0.180 A 
ATOM      2  C   UNL     1      19.511  88.201 114.220  1.00  0.00     0.208 A 
ATOM      3  C   UNL     1      20.646  87.383 114.350  1.00  0.00     0.238 A 
ATOM      4  O   UNL     1      20.982  86.995 115.499  1.00  0.00    -0.285 OA
ATOM      5  C   UNL     1      21.370  86.993 113.197  1.00  0.00     0.111 A 
ATOM      6  C   UNL     1      22.560  86.204 113.213  1.00  0.00     0.134 A 
ATOM      7  C   UNL     1      23.130  85.790 112.003  1.00  0.00     0.093 A 
ATOM      8  C   UNL     1      22.590  86.189 110.777  1.00  0.00     0.123 A 
ATOM      9  C   UNL     1      21.462  87.005 110.752  1.00  0.00     0.094 A 
ATOM     10  C   UNL     1      20.848  87.403 111.942  1.00  0.00     0.146 A 
ATOM     11  O   UNL     1      19.761  88.161 111.870  1.00  0.00    -0.452 OA
ENDROOT
BRANCH   1  12
ATOM     12  C   UNL     1      17.886  89.417 112.716  1.00  0.00     0.025 A 
ATOM     13  C   UNL     1      16.635  88.852 112.409  1.00  0.00     0.016 A 
ATOM     14  C   UNL     1      15.526  89.671 112.183  1.00  0.00     0.051 A 
ATOM     15  C   UNL     1      15.654  91.066 112.246  1.00  0.00     0.157 A 
ATOM     16  C   UNL     1      18.012  90.815 112.758  1.00  0.00     0.062 A 
ATOM     17  C   UNL     1      16.899  91.638 112.532  1.00  0.00     0.158 A 
BRANCH  15  18
ATOM     18  O   UNL     1      14.550  91.887 112.023  1.00  0.00    -0.504 OA
ATOM     19  H   UNL     1      13.772  91.917 112.673  1.00  0.00     0.293 HD
ENDBRANCH  15  18
BRANCH  17  20
ATOM     20  O   UNL     1      17.025  93.025 112.587  1.00  0.00    -0.504 OA
ATOM     21  H   UNL     1      17.933  93.474 112.627  1.00  0.00     0.293 HD
ENDBRANCH  17  20
ENDBRANCH   1  12
BRANCH   2  22
ATOM     22  O   UNL     1      18.829  88.659 115.350  1.00  0.00    -0.502 OA
ATOM     23  H   UNL     1      19.303  89.086 116.137  1.00  0.00     0.293 HD
ENDBRANCH   2  22
BRANCH   6  24
ATOM     24  O   UNL     1      23.231  85.824 114.378  1.00  0.00    -0.507 OA
ATOM     25  H   UNL     1      22.868  85.922 115.314  1.00  0.00     0.293 HD
ENDBRANCH   6  24
BRANCH   8  26
ATOM     26  O   UNL     1      23.174  85.787 109.579  1.00  0.00    -0.508 OA
ATOM     27  H   UNL     1      24.137  85.472 109.537  1.00  0.00     0.293 HD
ENDBRANCH   8  26
TORSDOF 6
ENDMDL
MODEL 2
REMARK VINA RESULT:    -7.610      3.307      7.225
REMARK INTER + INTRA:          -9.482
REMARK INTER:                  -9.318
REMARK INTRA:                  -0.164
REMARK UNBOUND:                -0.316
REMARK SMILES O=c1c(O)c(-c2ccc(O)c(O)c2)oc2cc(O)cc(O)c12
REMARK SMILES IDX 5 1 3 2 2 3 1 4 22 5 20 6 19 7 17 8 16 9 15 10 14 11 6 12
REMARK SMILES IDX 7 13 8 14 9 15 13 16 11 17 10 18 12 20 4 22 21 24 18 26
REMARK H PARENT 10 19 12 21 4 23 21 25 18 27
REMARK Flexibility Score: inf
ROOT
ATOM      1  C   UNL     1      18.727  89.578 115.306  1.00  0.00     0.180 A 
ATOM      2  C   UNL     1      18.883  88.908 114.081  1.00  0.00     0.208 A 
ATOM      3  C   UNL     1      17.794  88.842 113.197  1.00  0.00     0.238 A 
ATOM      4  O   UNL     1      17.918  88.177 112.135  1.00  0.00    -0.285 OA
ATOM      5  C   UNL     1      16.581  89.496 113.521  1.00  0.00     0.111 A 
ATOM      6  C   UNL     1      15.428  89.535 112.680  1.00  0.00     0.134 A 
ATOM      7  C   UNL     1      14.248  90.122 113.152  1.00  0.00     0.093 A 
ATOM      8  C   UNL     1      14.198  90.728 114.410  1.00  0.00     0.123 A 
ATOM      9  C   UNL     1      15.333  90.745 115.216  1.00  0.00     0.094 A 
ATOM     10  C   UNL     1      16.514  90.134 114.788  1.00  0.00     0.146 A 
ATOM     11  O   UNL     1      17.566  90.154 115.598  1.00  0.00    -0.452 OA
ENDROOT
BRANCH   1  12
ATOM     12  C   UNL     1      19.823  89.677 116.297  1.00  0.00     0.025 A 
ATOM     13  C   UNL     1      20.368  88.531 116.903  1.00  0.00     0.016 A 
ATOM     14  C   UNL     1      21.385  88.649 117.853  1.00  0.00     0.051 A 
ATOM     15  C   UNL     1      21.862  89.915 118.222  1.00  0.00     0.157 A 
ATOM     16  C   UNL     1      20.291  90.943 116.686  1.00  0.00     0.062 A 
ATOM     17  C   UNL     1      21.312  91.063 117.640  1.00  0.00     0.158 A 
BRANCH  15  18
ATOM     18  O   UNL     1      22.878  90.038 119.169  1.00  0.00    -0.504 OA
ATOM     19  H   UNL     1      22.737  90.546 120.034  1.00  0.00     0.293 HD
ENDBRANCH  15  18
BRANCH  17  20
ATOM     20  O   UNL     1      21.784  92.320 118.013  1.00  0.00    -0.504 OA
ATOM     21  H   UNL     1      22.720  92.627 117.775  1.00  0.00     0.293 HD
ENDBRANCH  17  20
ENDBRANCH   1  12
BRANCH   2  22
ATOM     22  O   UNL     1      20.112  88.334 113.745  1.00  0.00    -0.502 OA
ATOM     23  H   UNL     1      20.496  87.539 114.241  1.00  0.00     0.293 HD
ENDBRANCH   2  22
BRANCH   6  24
ATOM     24  O   UNL     1      15.395  89.038 111.374  1.00  0.00    -0.507 OA
ATOM     25  H   UNL     1      15.227  89.592 110.548  1.00  0.00     0.293 HD
ENDBRANCH   6  24
BRANCH   8  26
ATOM     26  O   UNL     1      13.024  91.325 114.865  1.00  0.00    -0.508 OA
ATOM     27  H   UNL     1      12.117  91.056 114.502  1.00  0.00     0.293 HD
ENDBRANCH   8  26
TORSDOF 6
ENDMDL
MODEL 3
REMARK VINA RESULT:    -7.594      1.506      6.963
REMARK INTER + INTRA:          -9.463
REMARK INTER:                  -9.527
REMARK INTRA:                   0.063
REMARK UNBOUND:                -0.316
REMARK SMILES O=c1c(O)c(-c2ccc(O)c(O)c2)oc2cc(O)cc(O)c12
REMARK SMILES IDX 5 1 3 2 2 3 1 4 22 5 20 6 19 7 17 8 16 9 15 10 14 11 6 12
REMARK SMILES IDX 7 13 8 14 9 15 13 16 11 17 10 18 12 20 4 22 21 24 18 26
REMARK H PARENT 10 19 12 21 4 23 21 25 18 27
REMARK Flexibility Score: inf
ROOT
ATOM      1  C   UNL     1      18.511  89.302 112.961  1.00  0.00     0.180 A 
ATOM      2  C   UNL     1      18.437  90.417 113.812  1.00  0.00     0.208 A 
ATOM      3  C   UNL     1      17.368  91.316 113.667  1.00  0.00     0.238 A 
ATOM      4  O   UNL     1      17.348  92.351 114.382  1.00  0.00    -0.285 OA
ATOM      5  C   UNL     1      16.355  91.058 112.712  1.00  0.00     0.111 A 
ATOM      6  C   UNL     1      15.201  91.876 112.509  1.00  0.00     0.134 A 
ATOM      7  C   UNL     1      14.320  91.579 111.462  1.00  0.00     0.093 A 
ATOM      8  C   UNL     1      14.515  90.460 110.650  1.00  0.00     0.123 A 
ATOM      9  C   UNL     1      15.607  89.624 110.875  1.00  0.00     0.094 A 
ATOM     10  C   UNL     1      16.524  89.915 111.887  1.00  0.00     0.146 A 
ATOM     11  O   UNL     1      17.563  89.104 112.051  1.00  0.00    -0.452 OA
ENDROOT
BRANCH   1  12
ATOM     12  C   UNL     1      19.615  88.318 113.042  1.00  0.00     0.025 A 
ATOM     13  C   UNL     1      20.048  87.804 114.277  1.00  0.00     0.016 A 
ATOM     14  C   UNL     1      21.108  86.895 114.331  1.00  0.00     0.051 A 
ATOM     15  C   UNL     1      21.759  86.498 113.155  1.00  0.00     0.157 A 
ATOM     16  C   UNL     1      20.284  87.933 111.869  1.00  0.00     0.062 A 
ATOM     17  C   UNL     1      21.348  87.021 111.923  1.00  0.00     0.158 A 
BRANCH  15  18
ATOM     18  O   UNL     1      22.816  85.591 113.204  1.00  0.00    -0.504 OA
ATOM     19  H   UNL     1      22.998  84.948 112.442  1.00  0.00     0.293 HD
ENDBRANCH  15  18
BRANCH  17  20
ATOM     20  O   UNL     1      22.002  86.630 110.755  1.00  0.00    -0.504 OA
ATOM     21  H   UNL     1      22.459  85.729 110.680  1.00  0.00     0.293 HD
ENDBRANCH  17  20
ENDBRANCH   1  12
BRANCH   2  22
ATOM     22  O   UNL     1      19.406  90.613 114.800  1.00  0.00    -0.502 OA
ATOM     23  H   UNL     1      20.372  90.824 114.581  1.00  0.00     0.293 HD
ENDBRANCH   2  22
BRANCH   6  24
ATOM     24  O   UNL     1      14.863  92.965 113.317  1.00  0.00    -0.507 OA
ATOM     25  H   UNL     1      15.240  93.896 113.221  1.00  0.00     0.293 HD
ENDBRANCH   6  24
BRANCH   8  26
ATOM     26  O   UNL     1      13.624  90.163 109.622  1.00  0.00    -0.508 OA
ATOM     27  H   UNL     1      13.160  90.894 109.095  1.00  0.00     0.293 HD
ENDBRANCH   8  26
TORSDOF 6
ENDMDL
MODEL 4
REMARK VINA RESULT:    -7.594      2.770      4.587
REMARK INTER + INTRA:          -9.463
REMARK INTER:                  -9.229
REMARK INTRA:                  -0.234
REMARK UNBOUND:                -0.316
REMARK SMILES O=c1c(O)c(-c2ccc(O)c(O)c2)oc2cc(O)cc(O)c12
REMARK SMILES IDX 5 1 3 2 2 3 1 4 22 5 20 6 19 7 17 8 16 9 15 10 14 11 6 12
REMARK SMILES IDX 7 13 8 14 9 15 13 16 11 17 10 18 12 20 4 22 21 24 18 26
REMARK H PARENT 10 19 12 21 4 23 21 25 18 27
REMARK Flexibility Score: inf
ROOT
ATOM      1  C   UNL     1      16.580  89.969 113.477  1.00  0.00     0.180 A 
ATOM      2  C   UNL     1      16.476  90.871 114.549  1.00  0.00     0.208 A 
ATOM      3  C   UNL     1      17.460  90.854 115.552  1.00  0.00     0.238 A 
ATOM      4  O   UNL     1      17.321  91.613 116.546  1.00  0.00    -0.285 OA
ATOM      5  C   UNL     1      18.564  89.975 115.441  1.00  0.00     0.111 A 
ATOM      6  C   UNL     1      19.643  89.905 116.374  1.00  0.00     0.134 A 
ATOM      7  C   UNL     1      20.628  88.922 116.217  1.00  0.00     0.093 A 
ATOM      8  C   UNL     1      20.608  88.048 115.127  1.00  0.00     0.123 A 
ATOM      9  C   UNL     1      19.591  88.146 114.181  1.00  0.00     0.094 A 
ATOM     10  C   UNL     1      18.573  89.091 114.330  1.00  0.00     0.146 A 
ATOM     11  O   UNL     1      17.611  89.133 113.417  1.00  0.00    -0.452 OA
ENDROOT
BRANCH   1  12
ATOM     12  C   UNL     1      15.576  89.917 112.390  1.00  0.00     0.025 A 
ATOM     13  C   UNL     1      15.476  90.943 111.434  1.00  0.00     0.016 A 
ATOM     14  C   UNL     1      14.505  90.884 110.431  1.00  0.00     0.051 A 
ATOM     15  C   UNL     1      13.611  89.806 110.378  1.00  0.00     0.157 A 
ATOM     16  C   UNL     1      14.664  88.849 112.344  1.00  0.00     0.062 A 
ATOM     17  C   UNL     1      13.689  88.789 111.337  1.00  0.00     0.158 A 
BRANCH  15  18
ATOM     18  O   UNL     1      12.641  89.741 109.379  1.00  0.00    -0.504 OA
ATOM     19  H   UNL     1      12.672  90.353 108.571  1.00  0.00     0.293 HD
ENDBRANCH  15  18
BRANCH  17  20
ATOM     20  O   UNL     1      12.794  87.721 111.286  1.00  0.00    -0.504 OA
ATOM     21  H   UNL     1      11.806  87.865 111.109  1.00  0.00     0.293 HD
ENDBRANCH  17  20
ENDBRANCH   1  12
BRANCH   2  22
ATOM     22  O   UNL     1      15.419  91.784 114.601  1.00  0.00    -0.502 OA
ATOM     23  H   UNL     1      14.968  92.143 113.769  1.00  0.00     0.293 HD
ENDBRANCH   2  22
BRANCH   6  24
ATOM     24  O   UNL     1      19.808  90.783 117.448  1.00  0.00    -0.507 OA
ATOM     25  H   UNL     1      20.143  91.731 117.374  1.00  0.00     0.293 HD
ENDBRANCH   6  24
BRANCH   8  26
ATOM     26  O   UNL     1      21.602  87.085 114.970  1.00  0.00    -0.508 OA
ATOM     27  H   UNL     1      21.662  86.517 114.132  1.00  0.00     0.293 HD
ENDBRANCH   8  26
TORSDOF 6
ENDMDL
MODEL 5
REMARK VINA RESULT:    -7.562      3.911      8.350
REMARK INTER + INTRA:          -9.424
REMARK INTER:                  -9.171
REMARK INTRA:                  -0.253
REMARK UNBOUND:                -0.316
REMARK SMILES O=c1c(O)c(-c2ccc(O)c(O)c2)oc2cc(O)cc(O)c12
REMARK SMILES IDX 5 1 3 2 2 3 1 4 22 5 20 6 19 7 17 8 16 9 15 10 14 11 6 12
REMARK SMILES IDX 7 13 8 14 9 15 13 16 11 17 10 18 12 20 4 22 21 24 18 26
REMARK H PARENT 10 19 12 21 4 23 21 25 18 27
REMARK Flexibility Score: inf
ROOT
ATOM      1  C   UNL     1      18.333  91.598 115.712  1.00  0.00     0.180 A 
ATOM      2  C   UNL     1      16.955  91.547 115.979  1.00  0.00     0.208 A 
ATOM      3  C   UNL     1      16.261  92.745 116.213  1.00  0.00     0.238 A 
ATOM      4  O   UNL     1      15.043  92.687 116.525  1.00  0.00    -0.285 OA
ATOM      5  C   UNL     1      16.942  93.984 116.122  1.00  0.00     0.111 A 
ATOM      6  C   UNL     1      16.330  95.262 116.296  1.00  0.00     0.134 A 
ATOM      7  C   UNL     1      17.125  96.415 116.288  1.00  0.00     0.093 A 
ATOM      8  C   UNL     1      18.500  96.341 116.050  1.00  0.00     0.123 A 
ATOM      9  C   UNL     1      19.098  95.103 115.824  1.00  0.00     0.094 A 
ATOM     10  C   UNL     1      18.337  93.932 115.864  1.00  0.00     0.146 A 
ATOM     11  O   UNL     1      18.952  92.772 115.666  1.00  0.00    -0.452 OA
ENDROOT
BRANCH   1  12
ATOM     12  C   UNL     1      19.135  90.377 115.469  1.00  0.00     0.025 A 
ATOM     13  C   UNL     1      19.029  89.658 114.265  1.00  0.00     0.016 A 
ATOM     14  C   UNL     1      19.779  88.495 114.068  1.00  0.00     0.051 A 
ATOM     15  C   UNL     1      20.634  88.027 115.075  1.00  0.00     0.157 A 
ATOM     16  C   UNL     1      19.978  89.892 116.483  1.00  0.00     0.062 A 
ATOM     17  C   UNL     1      20.731  88.725 116.285  1.00  0.00     0.158 A 
BRANCH  15  18
ATOM     18  O   UNL     1      21.384  86.869 114.882  1.00  0.00    -0.504 OA
ATOM     19  H   UNL     1      21.271  86.296 114.053  1.00  0.00     0.293 HD
ENDBRANCH  15  18
BRANCH  17  20
ATOM     20  O   UNL     1      21.577  88.254 117.288  1.00  0.00    -0.504 OA
ATOM     21  H   UNL     1      22.546  88.024 117.099  1.00  0.00     0.293 HD
ENDBRANCH  17  20
ENDBRANCH   1  12
BRANCH   2  22
ATOM     22  O   UNL     1      16.284  90.320 115.989  1.00  0.00    -0.502 OA
ATOM     23  H   UNL     1      15.274  90.252 115.991  1.00  0.00     0.293 HD
ENDBRANCH   2  22
BRANCH   6  24
ATOM     24  O   UNL     1      14.955  95.457 116.452  1.00  0.00    -0.507 OA
ATOM     25  H   UNL     1      14.394  96.092 115.906  1.00  0.00     0.293 HD
ENDBRANCH   6  24
BRANCH   8  26
ATOM     26  O   UNL     1      19.281  97.494 116.027  1.00  0.00    -0.508 OA
ATOM     27  H   UNL     1      19.272  98.156 116.795  1.00  0.00     0.293 HD
ENDBRANCH   8  26
TORSDOF 6
ENDMDL
MODEL 6
REMARK VINA RESULT:    -7.522      3.909      6.009
REMARK INTER + INTRA:          -9.377
REMARK INTER:                  -9.096
REMARK INTRA:                  -0.280
REMARK UNBOUND:                -0.316
REMARK SMILES O=c1c(O)c(-c2ccc(O)c(O)c2)oc2cc(O)cc(O)c12
REMARK SMILES IDX 5 1 3 2 2 3 1 4 22 5 20 6 19 7 17 8 16 9 15 10 14 11 6 12
REMARK SMILES IDX 7 13 8 14 9 15 13 16 11 17 10 18 12 20 4 22 21 24 18 26
REMARK H PARENT 10 19 12 21 4 23 21 25 18 27
REMARK Flexibility Score: inf
ROOT
ATOM      1  C   UNL     1      18.553  92.881 115.080  1.00  0.00     0.180 A 
ATOM      2  C   UNL     1      18.055  92.367 113.871  1.00  0.00     0.208 A 
ATOM      3  C   UNL     1      18.313  91.026 113.542  1.00  0.00     0.238 A 
ATOM      4  O   UNL     1      17.928  90.594 112.425  1.00  0.00    -0.285 OA
ATOM      5  C   UNL     1      19.017  90.200 114.452  1.00  0.00     0.111 A 
ATOM      6  C   UNL     1      19.296  88.815 114.244  1.00  0.00     0.134 A 
ATOM      7  C   UNL     1      20.092  88.125 115.166  1.00  0.00     0.093 A 
ATOM      8  C   UNL     1      20.568  88.753 116.320  1.00  0.00     0.123 A 
ATOM      9  C   UNL     1      20.255  90.088 116.560  1.00  0.00     0.094 A 
ATOM     10  C   UNL     1      19.494  90.814 115.640  1.00  0.00     0.146 A 
ATOM     11  O   UNL     1      19.239  92.091 115.898  1.00  0.00    -0.452 OA
ENDROOT
BRANCH   1  12
ATOM     12  C   UNL     1      18.336  94.288 115.489  1.00  0.00     0.025 A 
ATOM     13  C   UNL     1      17.099  94.718 116.002  1.00  0.00     0.016 A 
ATOM     14  C   UNL     1      16.909  96.056 116.359  1.00  0.00     0.051 A 
ATOM     15  C   UNL     1      17.947  96.984 116.195  1.00  0.00     0.157 A 
ATOM     16  C   UNL     1      19.364  95.226 115.308  1.00  0.00     0.062 A 
ATOM     17  C   UNL     1      19.175  96.569 115.666  1.00  0.00     0.158 A 
BRANCH  15  18
ATOM     18  O   UNL     1      17.762  98.319 116.552  1.00  0.00    -0.504 OA
ATOM     19  H   UNL     1      18.009  99.074 115.922  1.00  0.00     0.293 HD
ENDBRANCH  15  18
BRANCH  17  20
ATOM     20  O   UNL     1      20.202  97.496 115.498  1.00  0.00    -0.504 OA
ATOM     21  H   UNL     1      20.835  97.729 116.255  1.00  0.00     0.293 HD
ENDBRANCH  17  20
ENDBRANCH   1  12
BRANCH   2  22
ATOM     22  O   UNL     1      17.297  93.177 113.021  1.00  0.00    -0.502 OA
ATOM     23  H   UNL     1      17.363  93.120 112.012  1.00  0.00     0.293 HD
ENDBRANCH   2  22
BRANCH   6  24
ATOM     24  O   UNL     1      18.798  88.070 113.172  1.00  0.00    -0.507 OA
ATOM     25  H   UNL     1      18.556  88.446 112.268  1.00  0.00     0.293 HD
ENDBRANCH   6  24
BRANCH   8  26
ATOM     26  O   UNL     1      21.346  88.054 117.240  1.00  0.00    -0.508 OA
ATOM     27  H   UNL     1      22.347  87.954 117.120  1.00  0.00     0.293 HD
ENDBRANCH   8  26
TORSDOF 6
ENDMDL
MODEL 7
REMARK VINA RESULT:    -7.433      4.027      7.189
REMARK INTER + INTRA:          -9.270
REMARK INTER:                  -9.392
REMARK INTRA:                   0.122
REMARK UNBOUND:                -0.316
REMARK SMILES O=c1c(O)c(-c2ccc(O)c(O)c2)oc2cc(O)cc(O)c12
REMARK SMILES IDX 5 1 3 2 2 3 1 4 22 5 20 6 19 7 17 8 16 9 15 10 14 11 6 12
REMARK SMILES IDX 7 13 8 14 9 15 13 16 11 17 10 18 12 20 4 22 21 24 18 26
REMARK H PARENT 10 19 12 21 4 23 21 25 18 27
REMARK Flexibility Score: inf
ROOT
ATOM      1  C   UNL     1      17.946  90.804 115.215  1.00  0.00     0.180 A 
ATOM      2  C   UNL     1      17.037  91.764 115.692  1.00  0.00     0.208 A 
ATOM      3  C   UNL     1      15.913  92.084 114.913  1.00  0.00     0.238 A 
ATOM      4  O   UNL     1      15.144  92.997 115.311  1.00  0.00    -0.285 OA
ATOM      5  C   UNL     1      15.681  91.400 113.695  1.00  0.00     0.111 A 
ATOM      6  C   UNL     1      14.550  91.610 112.848  1.00  0.00     0.134 A 
ATOM      7  C   UNL     1      14.481  90.951 111.614  1.00  0.00     0.093 A 
ATOM      8  C   UNL     1      15.468  90.042 111.225  1.00  0.00     0.123 A 
ATOM      9  C   UNL     1      16.546  89.789 112.069  1.00  0.00     0.094 A 
ATOM     10  C   UNL     1      16.663  90.459 113.290  1.00  0.00     0.146 A 
ATOM     11  O   UNL     1      17.719  90.203 114.052  1.00  0.00    -0.452 OA
ENDROOT
BRANCH   1  12
ATOM     12  C   UNL     1      19.162  90.425 115.971  1.00  0.00     0.025 A 
ATOM     13  C   UNL     1      19.524  89.078 116.146  1.00  0.00     0.016 A 
ATOM     14  C   UNL     1      20.663  88.742 116.884  1.00  0.00     0.051 A 
ATOM     15  C   UNL     1      21.447  89.747 117.467  1.00  0.00     0.157 A 
ATOM     16  C   UNL     1      19.940  91.426 116.574  1.00  0.00     0.062 A 
ATOM     17  C   UNL     1      21.084  91.090 117.314  1.00  0.00     0.158 A 
BRANCH  15  18
ATOM     18  O   UNL     1      22.585  89.417 118.201  1.00  0.00    -0.504 OA
ATOM     19  H   UNL     1      23.435  89.965 118.136  1.00  0.00     0.293 HD
ENDBRANCH  15  18
BRANCH  17  20
ATOM     20  O   UNL     1      21.862  92.087 117.901  1.00  0.00    -0.504 OA
ATOM     21  H   UNL     1      21.606  93.065 117.838  1.00  0.00     0.293 HD
ENDBRANCH  17  20
ENDBRANCH   1  12
BRANCH   2  22
ATOM     22  O   UNL     1      17.243  92.373 116.933  1.00  0.00    -0.502 OA
ATOM     23  H   UNL     1      17.975  92.080 117.569  1.00  0.00     0.293 HD
ENDBRANCH   2  22
BRANCH   6  24
ATOM     24  O   UNL     1      13.466  92.427 113.178  1.00  0.00    -0.507 OA
ATOM     25  H   UNL     1      13.214  93.277 112.698  1.00  0.00     0.293 HD
ENDBRANCH   6  24
BRANCH   8  26
ATOM     26  O   UNL     1      15.382  89.379 110.004  1.00  0.00    -0.508 OA
ATOM     27  H   UNL     1      16.177  88.889 109.609  1.00  0.00     0.293 HD
ENDBRANCH   8  26
TORSDOF 6
ENDMDL
MODEL 8
REMARK VINA RESULT:    -7.415      4.022      5.450
REMARK INTER + INTRA:          -9.248
REMARK INTER:                  -8.985
REMARK INTRA:                  -0.263
REMARK UNBOUND:                -0.316
REMARK SMILES O=c1c(O)c(-c2ccc(O)c(O)c2)oc2cc(O)cc(O)c12
REMARK SMILES IDX 5 1 3 2 2 3 1 4 22 5 20 6 19 7 17 8 16 9 15 10 14 11 6 12
REMARK SMILES IDX 7 13 8 14 9 15 13 16 11 17 10 18 12 20 4 22 21 24 18 26
REMARK H PARENT 10 19 12 21 4 23 21 25 18 27
REMARK Flexibility Score: inf
ROOT
ATOM      1  C   UNL     1      17.302  90.103 114.360  1.00  0.00     0.180 A 
ATOM      2  C   UNL     1      18.014  89.105 115.046  1.00  0.00     0.208 A 
ATOM      3  C   UNL     1      19.067  89.481 115.896  1.00  0.00     0.238 A 
ATOM      4  O   UNL     1      19.747  88.578 116.449  1.00  0.00    -0.285 OA
ATOM      5  C   UNL     1      19.359  90.852 116.094  1.00  0.00     0.111 A 
ATOM      6  C   UNL     1      20.374  91.350 116.967  1.00  0.00     0.134 A 
ATOM      7  C   UNL     1      20.643  92.723 117.001  1.00  0.00     0.093 A 
ATOM      8  C   UNL     1      19.892  93.624 116.241  1.00  0.00     0.123 A 
ATOM      9  C   UNL     1      18.863  93.154 115.429  1.00  0.00     0.094 A 
ATOM     10  C   UNL     1      18.596  91.786 115.345  1.00  0.00     0.146 A 
ATOM     11  O   UNL     1      17.621  91.380 114.540  1.00  0.00    -0.452 OA
ENDROOT
BRANCH   1  12
ATOM     12  C   UNL     1      16.190  89.785 113.436  1.00  0.00     0.025 A 
ATOM     13  C   UNL     1      14.848  89.960 113.818  1.00  0.00     0.016 A 
ATOM     14  C   UNL     1      13.814  89.630 112.938  1.00  0.00     0.051 A 
ATOM     15  C   UNL     1      14.105  89.110 111.670  1.00  0.00     0.157 A 
ATOM     16  C   UNL     1      16.475  89.245 112.172  1.00  0.00     0.062 A 
ATOM     17  C   UNL     1      15.438  88.915 111.288  1.00  0.00     0.158 A 
BRANCH  15  18
ATOM     18  O   UNL     1      13.077  88.782 110.787  1.00  0.00    -0.504 OA
ATOM     19  H   UNL     1      13.036  87.876 110.335  1.00  0.00     0.293 HD
ENDBRANCH  15  18
BRANCH  17  20
ATOM     20  O   UNL     1      15.725  88.390 110.028  1.00  0.00    -0.504 OA
ATOM     21  H   UNL     1      16.410  87.654 109.904  1.00  0.00     0.293 HD
ENDBRANCH  17  20
ENDBRANCH   1  12
BRANCH   2  22
ATOM     22  O   UNL     1      17.661  87.761 114.898  1.00  0.00    -0.502 OA
ATOM     23  H   UNL     1      18.032  87.179 114.156  1.00  0.00     0.293 HD
ENDBRANCH   2  22
BRANCH   6  24
ATOM     24  O   UNL     1      21.123  90.548 117.833  1.00  0.00    -0.507 OA
ATOM     25  H   UNL     1      20.991  89.557 117.963  1.00  0.00     0.293 HD
ENDBRANCH   6  24
BRANCH   8  26
ATOM     26  O   UNL     1      20.155  94.991 116.294  1.00  0.00    -0.508 OA
ATOM     27  H   UNL     1      20.039  95.585 115.481  1.00  0.00     0.293 HD
ENDBRANCH   8  26
TORSDOF 6
ENDMDL
MODEL 9
REMARK VINA RESULT:    -7.354      3.914      7.978
REMARK INTER + INTRA:          -9.174
REMARK INTER:                  -8.914
REMARK INTRA:                  -0.260
REMARK UNBOUND:                -0.316
REMARK SMILES O=c1c(O)c(-c2ccc(O)c(O)c2)oc2cc(O)cc(O)c12
REMARK SMILES IDX 5 1 3 2 2 3 1 4 22 5 20 6 19 7 17 8 16 9 15 10 14 11 6 12
REMARK SMILES IDX 7 13 8 14 9 15 13 16 11 17 10 18 12 20 4 22 21 24 18 26
REMARK H PARENT 10 19 12 21 4 23 21 25 18 27
REMARK Flexibility Score: inf
ROOT
ATOM      1  C   UNL     1      18.270  90.666 115.393  1.00  0.00     0.180 A 
ATOM      2  C   UNL     1      18.255  90.458 114.004  1.00  0.00     0.208 A 
ATOM      3  C   UNL     1      17.078  90.728 113.287  1.00  0.00     0.238 A 
ATOM      4  O   UNL     1      17.049  90.469 112.056  1.00  0.00    -0.285 OA
ATOM      5  C   UNL     1      15.949  91.256 113.958  1.00  0.00     0.111 A 
ATOM      6  C   UNL     1      14.718  91.609 113.325  1.00  0.00     0.134 A 
ATOM      7  C   UNL     1      13.633  92.023 114.107  1.00  0.00     0.093 A 
ATOM      8  C   UNL     1      13.752  92.156 115.493  1.00  0.00     0.123 A 
ATOM      9  C   UNL     1      14.965  91.867 116.114  1.00  0.00     0.094 A 
ATOM     10  C   UNL     1      16.054  91.416 115.365  1.00  0.00     0.146 A 
ATOM     11  O   UNL     1      17.184  91.131 116.001  1.00  0.00    -0.452 OA
ENDROOT
BRANCH   1  12
ATOM     12  C   UNL     1      19.468  90.391 116.220  1.00  0.00     0.025 A 
ATOM     13  C   UNL     1      19.870  89.075 116.509  1.00  0.00     0.016 A 
ATOM     14  C   UNL     1      20.990  88.839 117.312  1.00  0.00     0.051 A 
ATOM     15  C   UNL     1      21.714  89.913 117.847  1.00  0.00     0.157 A 
ATOM     16  C   UNL     1      20.185  91.463 116.775  1.00  0.00     0.062 A 
ATOM     17  C   UNL     1      21.309  91.227 117.580  1.00  0.00     0.158 A 
BRANCH  15  18
ATOM     18  O   UNL     1      22.833  89.683 118.646  1.00  0.00    -0.504 OA
ATOM     19  H   UNL     1      23.692  90.206 118.518  1.00  0.00     0.293 HD
ENDBRANCH  15  18
BRANCH  17  20
ATOM     20  O   UNL     1      22.027  92.293 118.119  1.00  0.00    -0.504 OA
ATOM     21  H   UNL     1      22.107  92.426 119.120  1.00  0.00     0.293 HD
ENDBRANCH  17  20
ENDBRANCH   1  12
BRANCH   2  22
ATOM     22  O   UNL     1      19.405  90.009 113.347  1.00  0.00    -0.502 OA
ATOM     23  H   UNL     1      20.253  90.560 113.296  1.00  0.00     0.293 HD
ENDBRANCH   2  22
BRANCH   6  24
ATOM     24  O   UNL     1      14.519  91.597 111.942  1.00  0.00    -0.507 OA
ATOM     25  H   UNL     1      13.751  91.142 111.472  1.00  0.00     0.293 HD
ENDBRANCH   6  24
BRANCH   8  26
ATOM     26  O   UNL     1      12.673  92.584 116.261  1.00  0.00    -0.508 OA
ATOM     27  H   UNL     1      11.720  92.333 116.024  1.00  0.00     0.293 HD
ENDBRANCH   8  26
TORSDOF 6
ENDMDL
