MODEL 1
REMARK VINA RESULT:    -4.453      0.000      0.000
REMARK INTER + INTRA:          -8.645
REMARK INTER:                  -7.577
REMARK INTRA:                  -1.068
REMARK UNBOUND:                -1.068
REMARK SMILES CCCCCCCCCCCCCC(=O)[O-]
REMARK SMILES IDX 8 1 9 2 10 3 11 4 12 5 13 6 14 7 15 8 16 9 7 10 6 11 5 12
REMARK SMILES IDX 4 13 3 14 2 15 1 16
REMARK H PARENT
REMARK Flexibility Score: inf
ROOT
ATOM      1  C   UNL     1      -1.776   2.563  -2.350  1.00  0.00     0.000 C 
ENDROOT
BRANCH   1   2
ATOM      2  C   UNL     1      -1.623   2.417  -3.871  1.00  0.00     0.000 C 
BRANCH   2   3
ATOM      3  C   UNL     1      -0.509   3.332  -4.400  1.00  0.00     0.000 C 
BRANCH   3   4
ATOM      4  C   UNL     1       0.713   3.394  -3.467  1.00  0.00     0.000 C 
BRANCH   4   5
ATOM      5  C   UNL     1       2.002   2.765  -4.034  1.00  0.00     0.006 C 
BRANCH   5   6
ATOM      6  C   UNL     1       2.772   1.883  -3.040  1.00  0.00     0.053 C 
BRANCH   6   7
ATOM      7  C   UNL     1       4.064   2.510  -2.618  1.00  0.00     0.041 C 
ATOM      8  O   UNL     1       4.095   3.716  -2.256  1.00  0.00    -0.550 OA
ATOM      9  O   UNL     1       5.230   1.755  -2.590  1.00  0.00    -0.550 OA
ENDBRANCH   6   7
ENDBRANCH   5   6
ENDBRANCH   4   5
ENDBRANCH   3   4
ENDBRANCH   2   3
ENDBRANCH   1   2
BRANCH   1  10
ATOM     10  C   UNL     1      -3.241   2.495  -1.890  1.00  0.00     0.000 C 
BRANCH  10  11
ATOM     11  C   UNL     1      -4.234   2.731  -3.041  1.00  0.00    -0.000 C 
BRANCH  11  12
ATOM     12  C   UNL     1      -5.130   1.511  -3.307  1.00  0.00    -0.000 C 
BRANCH  12  13
ATOM     13  C   UNL     1      -5.024   1.000  -4.752  1.00  0.00    -0.000 C 
BRANCH  13  14
ATOM     14  C   UNL     1      -4.436  -0.416  -4.792  1.00  0.00    -0.000 C 
BRANCH  14  15
ATOM     15  C   UNL     1      -3.859  -0.810  -3.427  1.00  0.00    -0.003 C 
ATOM     16  C   UNL     1      -3.322  -2.239  -3.447  1.00  0.00     0.004 C 
ENDBRANCH  14  15
ENDBRANCH  13  14
ENDBRANCH  12  13
ENDBRANCH  11  12
ENDBRANCH  10  11
ENDBRANCH   1  10
TORSDOF 12
ENDMDL
MODEL 2
REMARK VINA RESULT:    -4.437      3.579      7.194
REMARK INTER + INTRA:          -8.617
REMARK INTER:                  -7.299
REMARK INTRA:                  -1.318
REMARK UNBOUND:                -1.068
REMARK SMILES CCCCCCCCCCCCCC(=O)[O-]
REMARK SMILES IDX 8 1 9 2 10 3 11 4 12 5 13 6 14 7 15 8 16 9 7 10 6 11 5 12
REMARK SMILES IDX 4 13 3 14 2 15 1 16
REMARK H PARENT
REMARK Flexibility Score: inf
ROOT
ATOM      1  C   UNL     1      -0.005   3.335  -4.646  1.00  0.00     0.000 C 
ENDROOT
BRANCH   1   2
ATOM      2  C   UNL     1      -1.337   2.737  -4.168  1.00  0.00     0.000 C 
BRANCH   2   3
ATOM      3  C   UNL     1      -1.365   2.614  -2.637  1.00  0.00     0.000 C 
BRANCH   3   4
ATOM      4  C   UNL     1      -2.791   2.548  -2.065  1.00  0.00     0.000 C 
BRANCH   4   5
ATOM      5  C   UNL     1      -3.915   2.863  -3.074  1.00  0.00     0.006 C 
BRANCH   5   6
ATOM      6  C   UNL     1      -4.962   1.750  -3.231  1.00  0.00     0.053 C 
BRANCH   6   7
ATOM      7  C   UNL     1      -4.384   0.521  -3.862  1.00  0.00     0.041 C 
ATOM      8  O   UNL     1      -4.074  -0.471  -3.152  1.00  0.00    -0.550 OA
ATOM      9  O   UNL     1      -4.218   0.458  -5.240  1.00  0.00    -0.550 OA
ENDBRANCH   6   7
ENDBRANCH   5   6
ENDBRANCH   4   5
ENDBRANCH   3   4
ENDBRANCH   2   3
ENDBRANCH   1   2
BRANCH   1  10
ATOM     10  C   UNL     1       0.704   4.154  -3.556  1.00  0.00     0.000 C 
BRANCH  10  11
ATOM     11  C   UNL     1       2.168   3.726  -3.352  1.00  0.00    -0.000 C 
BRANCH  11  12
ATOM     12  C   UNL     1       2.325   2.204  -3.219  1.00  0.00    -0.000 C 
BRANCH  12  13
ATOM     13  C   UNL     1       3.508   1.655  -4.032  1.00  0.00    -0.000 C 
BRANCH  13  14
ATOM     14  C   UNL     1       4.194   2.775  -4.825  1.00  0.00    -0.000 C 
BRANCH  14  15
ATOM     15  C   UNL     1       4.100   2.519  -6.333  1.00  0.00    -0.003 C 
ATOM     16  C   UNL     1       2.977   3.339  -6.963  1.00  0.00     0.004 C 
ENDBRANCH  14  15
ENDBRANCH  13  14
ENDBRANCH  12  13
ENDBRANCH  11  12
ENDBRANCH  10  11
ENDBRANCH   1  10
TORSDOF 12
ENDMDL
MODEL 3
REMARK VINA RESULT:    -4.344      1.775      3.020
REMARK INTER + INTRA:          -8.459
REMARK INTER:                  -7.066
REMARK INTRA:                  -1.394
REMARK UNBOUND:                -1.068
REMARK SMILES CCCCCCCCCCCCCC(=O)[O-]
REMARK SMILES IDX 8 1 9 2 10 3 11 4 12 5 13 6 14 7 15 8 16 9 7 10 6 11 5 12
REMARK SMILES IDX 4 13 3 14 2 15 1 16
REMARK H PARENT
REMARK Flexibility Score: inf
ROOT
ATOM      1  C   UNL     1      -1.004   5.094  -4.572  1.00  0.00     0.000 C 
ENDROOT
BRANCH   1   2
ATOM      2  C   UNL     1       0.495   5.073  -4.242  1.00  0.00     0.000 C 
BRANCH   2   3
ATOM      3  C   UNL     1       0.774   4.191  -3.016  1.00  0.00     0.000 C 
BRANCH   3   4
ATOM      4  C   UNL     1       1.274   2.784  -3.387  1.00  0.00     0.000 C 
BRANCH   4   5
ATOM      5  C   UNL     1       2.534   2.752  -4.277  1.00  0.00     0.006 C 
BRANCH   5   6
ATOM      6  C   UNL     1       3.612   1.758  -3.819  1.00  0.00     0.053 C 
BRANCH   6   7
ATOM      7  C   UNL     1       4.661   2.416  -2.978  1.00  0.00     0.041 C 
ATOM      8  O   UNL     1       5.515   3.174  -3.508  1.00  0.00    -0.550 OA
ATOM      9  O   UNL     1       4.677   2.219  -1.603  1.00  0.00    -0.550 OA
ENDBRANCH   6   7
ENDBRANCH   5   6
ENDBRANCH   4   5
ENDBRANCH   3   4
ENDBRANCH   2   3
ENDBRANCH   1   2
BRANCH   1  10
ATOM     10  C   UNL     1      -1.324   4.442  -5.927  1.00  0.00     0.000 C 
BRANCH  10  11
ATOM     11  C   UNL     1      -1.388   2.907  -5.845  1.00  0.00    -0.000 C 
BRANCH  11  12
ATOM     12  C   UNL     1      -2.829   2.373  -5.878  1.00  0.00    -0.000 C 
BRANCH  12  13
ATOM     13  C   UNL     1      -3.231   1.670  -4.573  1.00  0.00    -0.000 C 
BRANCH  13  14
ATOM     14  C   UNL     1      -2.183   1.906  -3.477  1.00  0.00    -0.000 C 
BRANCH  14  15
ATOM     15  C   UNL     1      -2.841   2.406  -2.185  1.00  0.00    -0.003 C 
ATOM     16  C   UNL     1      -4.251   2.925  -2.450  1.00  0.00     0.004 C 
ENDBRANCH  14  15
ENDBRANCH  13  14
ENDBRANCH  12  13
ENDBRANCH  11  12
ENDBRANCH  10  11
ENDBRANCH   1  10
TORSDOF 12
ENDMDL
MODEL 4
REMARK VINA RESULT:    -4.335      1.086      2.130
REMARK INTER + INTRA:          -8.444
REMARK INTER:                  -7.489
REMARK INTRA:                  -0.955
REMARK UNBOUND:                -1.068
REMARK SMILES CCCCCCCCCCCCCC(=O)[O-]
REMARK SMILES IDX 8 1 9 2 10 3 11 4 12 5 13 6 14 7 15 8 16 9 7 10 6 11 5 12
REMARK SMILES IDX 4 13 3 14 2 15 1 16
REMARK H PARENT
REMARK Flexibility Score: inf
ROOT
ATOM      1  C   UNL     1      -0.643   3.143  -4.169  1.00  0.00     0.000 C 
ENDROOT
BRANCH   1   2
ATOM      2  C   UNL     1       0.278   3.359  -2.958  1.00  0.00     0.000 C 
BRANCH   2   3
ATOM      3  C   UNL     1       1.755   3.321  -3.379  1.00  0.00     0.000 C 
BRANCH   3   4
ATOM      4  C   UNL     1       2.371   1.914  -3.287  1.00  0.00     0.000 C 
BRANCH   4   5
ATOM      5  C   UNL     1       3.904   1.861  -3.446  1.00  0.00     0.006 C 
BRANCH   5   6
ATOM      6  C   UNL     1       4.599   3.231  -3.386  1.00  0.00     0.053 C 
BRANCH   6   7
ATOM      7  C   UNL     1       5.475   3.363  -2.180  1.00  0.00     0.041 C 
ATOM      8  O   UNL     1       5.195   2.740  -1.121  1.00  0.00    -0.550 OA
ATOM      9  O   UNL     1       6.621   4.147  -2.232  1.00  0.00    -0.550 OA
ENDBRANCH   6   7
ENDBRANCH   5   6
ENDBRANCH   4   5
ENDBRANCH   3   4
ENDBRANCH   2   3
ENDBRANCH   1   2
BRANCH   1  10
ATOM     10  C   UNL     1      -1.899   2.328  -3.823  1.00  0.00     0.000 C 
BRANCH  10  11
ATOM     11  C   UNL     1      -2.317   2.481  -2.350  1.00  0.00    -0.000 C 
BRANCH  11  12
ATOM     12  C   UNL     1      -3.833   2.669  -2.183  1.00  0.00    -0.000 C 
BRANCH  12  13
ATOM     13  C   UNL     1      -4.614   2.380  -3.474  1.00  0.00    -0.000 C 
BRANCH  13  14
ATOM     14  C   UNL     1      -5.390   1.062  -3.362  1.00  0.00    -0.000 C 
BRANCH  14  15
ATOM     15  C   UNL     1      -4.751  -0.028  -4.230  1.00  0.00    -0.003 C 
ATOM     16  C   UNL     1      -3.821  -0.914  -3.407  1.00  0.00     0.004 C 
ENDBRANCH  14  15
ENDBRANCH  13  14
ENDBRANCH  12  13
ENDBRANCH  11  12
ENDBRANCH  10  11
ENDBRANCH   1  10
TORSDOF 12
ENDMDL
MODEL 5
REMARK VINA RESULT:    -4.280      3.083      4.572
REMARK INTER + INTRA:          -8.349
REMARK INTER:                  -7.637
REMARK INTRA:                  -0.712
REMARK UNBOUND:                -1.068
REMARK SMILES CCCCCCCCCCCCCC(=O)[O-]
REMARK SMILES IDX 8 1 9 2 10 3 11 4 12 5 13 6 14 7 15 8 16 9 7 10 6 11 5 12
REMARK SMILES IDX 4 13 3 14 2 15 1 16
REMARK H PARENT
REMARK Flexibility Score: inf
ROOT
ATOM      1  C   UNL     1       1.761   3.141  -3.695  1.00  0.00     0.000 C 
ENDROOT
BRANCH   1   2
ATOM      2  C   UNL     1       2.669   1.936  -3.412  1.00  0.00     0.000 C 
BRANCH   2   3
ATOM      3  C   UNL     1       3.909   1.957  -4.319  1.00  0.00     0.000 C 
BRANCH   3   4
ATOM      4  C   UNL     1       4.036   3.257  -5.132  1.00  0.00     0.000 C 
BRANCH   4   5
ATOM      5  C   UNL     1       4.516   3.073  -6.587  1.00  0.00     0.006 C 
BRANCH   5   6
ATOM      6  C   UNL     1       4.178   1.705  -7.201  1.00  0.00     0.053 C 
BRANCH   6   7
ATOM      7  C   UNL     1       5.068   1.375  -8.358  1.00  0.00     0.041 C 
ATOM      8  O   UNL     1       4.915   0.295  -8.988  1.00  0.00    -0.550 OA
ATOM      9  O   UNL     1       6.046   2.275  -8.765  1.00  0.00    -0.550 OA
ENDBRANCH   6   7
ENDBRANCH   5   6
ENDBRANCH   4   5
ENDBRANCH   3   4
ENDBRANCH   2   3
ENDBRANCH   1   2
BRANCH   1  10
ATOM     10  C   UNL     1       0.354   2.980  -3.099  1.00  0.00     0.000 C 
BRANCH  10  11
ATOM     11  C   UNL     1      -0.751   3.478  -4.047  1.00  0.00    -0.000 C 
BRANCH  11  12
ATOM     12  C   UNL     1      -1.931   2.497  -4.146  1.00  0.00    -0.000 C 
BRANCH  12  13
ATOM     13  C   UNL     1      -2.262   1.829  -2.803  1.00  0.00    -0.000 C 
BRANCH  13  14
ATOM     14  C   UNL     1      -3.390   2.578  -2.082  1.00  0.00    -0.000 C 
BRANCH  14  15
ATOM     15  C   UNL     1      -4.596   2.779  -3.007  1.00  0.00    -0.003 C 
ATOM     16  C   UNL     1      -5.369   1.477  -3.197  1.00  0.00     0.004 C 
ENDBRANCH  14  15
ENDBRANCH  13  14
ENDBRANCH  12  13
ENDBRANCH  11  12
ENDBRANCH  10  11
ENDBRANCH   1  10
TORSDOF 12
ENDMDL
MODEL 6
REMARK VINA RESULT:    -4.279      1.479      2.428
REMARK INTER + INTRA:          -8.349
REMARK INTER:                  -7.446
REMARK INTRA:                  -0.903
REMARK UNBOUND:                -1.068
REMARK SMILES CCCCCCCCCCCCCC(=O)[O-]
REMARK SMILES IDX 8 1 9 2 10 3 11 4 12 5 13 6 14 7 15 8 16 9 7 10 6 11 5 12
REMARK SMILES IDX 4 13 3 14 2 15 1 16
REMARK H PARENT
REMARK Flexibility Score: inf
ROOT
ATOM      1  C   UNL     1      -0.731   3.031  -5.245  1.00  0.00     0.000 C 
ENDROOT
BRANCH   1   2
ATOM      2  C   UNL     1       0.205   3.962  -6.029  1.00  0.00     0.000 C 
BRANCH   2   3
ATOM      3  C   UNL     1       1.575   4.067  -5.343  1.00  0.00     0.000 C 
BRANCH   3   4
ATOM      4  C   UNL     1       2.697   3.366  -6.127  1.00  0.00     0.000 C 
BRANCH   4   5
ATOM      5  C   UNL     1       3.950   3.012  -5.300  1.00  0.00     0.006 C 
BRANCH   5   6
ATOM      6  C   UNL     1       3.886   3.449  -3.828  1.00  0.00     0.053 C 
BRANCH   6   7
ATOM      7  C   UNL     1       3.752   2.280  -2.902  1.00  0.00     0.041 C 
ATOM      8  O   UNL     1       4.674   2.006  -2.089  1.00  0.00    -0.550 OA
ATOM      9  O   UNL     1       2.595   1.512  -2.912  1.00  0.00    -0.550 OA
ENDBRANCH   6   7
ENDBRANCH   5   6
ENDBRANCH   4   5
ENDBRANCH   3   4
ENDBRANCH   2   3
ENDBRANCH   1   2
BRANCH   1  10
ATOM     10  C   UNL     1      -0.878   3.441  -3.770  1.00  0.00     0.000 C 
BRANCH  10  11
ATOM     11  C   UNL     1      -1.336   2.276  -2.875  1.00  0.00    -0.000 C 
BRANCH  11  12
ATOM     12  C   UNL     1      -2.682   2.552  -2.188  1.00  0.00    -0.000 C 
BRANCH  12  13
ATOM     13  C   UNL     1      -3.885   2.159  -3.058  1.00  0.00    -0.000 C 
BRANCH  13  14
ATOM     14  C   UNL     1      -3.552   0.947  -3.939  1.00  0.00    -0.000 C 
BRANCH  14  15
ATOM     15  C   UNL     1      -4.416  -0.262  -3.560  1.00  0.00    -0.003 C 
ATOM     16  C   UNL     1      -3.566  -1.522  -3.415  1.00  0.00     0.004 C 
ENDBRANCH  14  15
ENDBRANCH  13  14
ENDBRANCH  12  13
ENDBRANCH  11  12
ENDBRANCH  10  11
ENDBRANCH   1  10
TORSDOF 12
ENDMDL
MODEL 7
REMARK VINA RESULT:    -4.242      1.623      3.011
REMARK INTER + INTRA:          -8.286
REMARK INTER:                  -7.086
REMARK INTRA:                  -1.200
REMARK UNBOUND:                -1.068
REMARK SMILES CCCCCCCCCCCCCC(=O)[O-]
REMARK SMILES IDX 8 1 9 2 10 3 11 4 12 5 13 6 14 7 15 8 16 9 7 10 6 11 5 12
REMARK SMILES IDX 4 13 3 14 2 15 1 16
REMARK H PARENT
REMARK Flexibility Score: inf
ROOT
ATOM      1  C   UNL     1      -1.226   2.979  -4.709  1.00  0.00     0.000 C 
ENDROOT
BRANCH   1   2
ATOM      2  C   UNL     1       0.033   3.437  -5.459  1.00  0.00     0.000 C 
BRANCH   2   3
ATOM      3  C   UNL     1       0.701   4.618  -4.738  1.00  0.00     0.000 C 
BRANCH   3   4
ATOM      4  C   UNL     1       2.236   4.519  -4.716  1.00  0.00     0.000 C 
BRANCH   4   5
ATOM      5  C   UNL     1       2.808   3.150  -5.139  1.00  0.00     0.006 C 
BRANCH   5   6
ATOM      6  C   UNL     1       4.149   2.789  -4.481  1.00  0.00     0.053 C 
BRANCH   6   7
ATOM      7  C   UNL     1       3.961   2.066  -3.184  1.00  0.00     0.041 C 
ATOM      8  O   UNL     1       4.916   1.966  -2.369  1.00  0.00    -0.550 OA
ATOM      9  O   UNL     1       2.722   1.530  -2.858  1.00  0.00    -0.550 OA
ENDBRANCH   6   7
ENDBRANCH   5   6
ENDBRANCH   4   5
ENDBRANCH   3   4
ENDBRANCH   2   3
ENDBRANCH   1   2
BRANCH   1  10
ATOM     10  C   UNL     1      -1.044   2.982  -3.183  1.00  0.00     0.000 C 
BRANCH  10  11
ATOM     11  C   UNL     1      -2.183   2.252  -2.450  1.00  0.00    -0.000 C 
BRANCH  11  12
ATOM     12  C   UNL     1      -2.959   1.295  -3.368  1.00  0.00    -0.000 C 
BRANCH  12  13
ATOM     13  C   UNL     1      -4.482   1.448  -3.236  1.00  0.00    -0.000 C 
BRANCH  13  14
ATOM     14  C   UNL     1      -4.852   2.861  -2.767  1.00  0.00    -0.000 C 
BRANCH  14  15
ATOM     15  C   UNL     1      -5.468   3.676  -3.910  1.00  0.00    -0.003 C 
ATOM     16  C   UNL     1      -4.452   4.646  -4.505  1.00  0.00     0.004 C 
ENDBRANCH  14  15
ENDBRANCH  13  14
ENDBRANCH  12  13
ENDBRANCH  11  12
ENDBRANCH  10  11
ENDBRANCH   1  10
TORSDOF 12
ENDMDL
MODEL 8
REMARK VINA RESULT:    -4.240      1.461      2.883
REMARK INTER + INTRA:          -8.282
REMARK INTER:                  -6.951
REMARK INTRA:                  -1.332
REMARK UNBOUND:                -1.068
REMARK SMILES CCCCCCCCCCCCCC(=O)[O-]
REMARK SMILES IDX 8 1 9 2 10 3 11 4 12 5 13 6 14 7 15 8 16 9 7 10 6 11 5 12
REMARK SMILES IDX 4 13 3 14 2 15 1 16
REMARK H PARENT
REMARK Flexibility Score: inf
ROOT
ATOM      1  C   UNL     1      -0.432   3.918  -6.462  1.00  0.00     0.000 C 
ENDROOT
BRANCH   1   2
ATOM      2  C   UNL     1       1.088   3.747  -6.333  1.00  0.00     0.000 C 
BRANCH   2   3
ATOM      3  C   UNL     1       1.690   4.845  -5.443  1.00  0.00     0.000 C 
BRANCH   3   4
ATOM      4  C   UNL     1       2.233   4.306  -4.108  1.00  0.00     0.000 C 
BRANCH   4   5
ATOM      5  C   UNL     1       2.227   2.769  -3.973  1.00  0.00     0.006 C 
BRANCH   5   6
ATOM      6  C   UNL     1       3.593   2.104  -4.201  1.00  0.00     0.053 C 
BRANCH   6   7
ATOM      7  C   UNL     1       4.590   2.496  -3.155  1.00  0.00     0.041 C 
ATOM      8  O   UNL     1       5.567   3.231  -3.454  1.00  0.00    -0.550 OA
ATOM      9  O   UNL     1       4.422   2.077  -1.841  1.00  0.00    -0.550 OA
ENDBRANCH   6   7
ENDBRANCH   5   6
ENDBRANCH   4   5
ENDBRANCH   3   4
ENDBRANCH   2   3
ENDBRANCH   1   2
BRANCH   1  10
ATOM     10  C   UNL     1      -1.217   2.984  -5.527  1.00  0.00     0.000 C 
BRANCH  10  11
ATOM     11  C   UNL     1      -1.510   3.625  -4.159  1.00  0.00    -0.000 C 
BRANCH  11  12
ATOM     12  C   UNL     1      -1.323   2.641  -2.994  1.00  0.00    -0.000 C 
BRANCH  12  13
ATOM     13  C   UNL     1      -2.592   2.481  -2.142  1.00  0.00    -0.000 C 
BRANCH  13  14
ATOM     14  C   UNL     1      -3.765   1.980  -2.994  1.00  0.00    -0.000 C 
BRANCH  14  15
ATOM     15  C   UNL     1      -3.558   0.519  -3.410  1.00  0.00    -0.003 C 
ATOM     16  C   UNL     1      -4.276   0.211  -4.721  1.00  0.00     0.004 C 
ENDBRANCH  14  15
ENDBRANCH  13  14
ENDBRANCH  12  13
ENDBRANCH  11  12
ENDBRANCH  10  11
ENDBRANCH   1  10
TORSDOF 12
ENDMDL
MODEL 9
REMARK VINA RESULT:    -4.188      2.375      3.442
REMARK INTER + INTRA:          -8.194
REMARK INTER:                  -7.021
REMARK INTRA:                  -1.174
REMARK UNBOUND:                -1.068
REMARK SMILES CCCCCCCCCCCCCC(=O)[O-]
REMARK SMILES IDX 8 1 9 2 10 3 11 4 12 5 13 6 14 7 15 8 16 9 7 10 6 11 5 12
REMARK SMILES IDX 4 13 3 14 2 15 1 16
REMARK H PARENT
REMARK Flexibility Score: inf
ROOT
ATOM      1  C   UNL     1      -0.332   3.836  -4.642  1.00  0.00     0.000 C 
ENDROOT
BRANCH   1   2
ATOM      2  C   UNL     1       0.236   2.988  -3.495  1.00  0.00     0.000 C 
BRANCH   2   3
ATOM      3  C   UNL     1       1.741   3.239  -3.321  1.00  0.00     0.000 C 
BRANCH   3   4
ATOM      4  C   UNL     1       2.577   1.948  -3.383  1.00  0.00     0.000 C 
BRANCH   4   5
ATOM      5  C   UNL     1       3.775   1.992  -4.355  1.00  0.00     0.006 C 
BRANCH   5   6
ATOM      6  C   UNL     1       3.593   2.944  -5.547  1.00  0.00     0.053 C 
BRANCH   6   7
ATOM      7  C   UNL     1       4.260   2.428  -6.784  1.00  0.00     0.041 C 
ATOM      8  O   UNL     1       4.245   1.196  -7.046  1.00  0.00    -0.550 OA
ATOM      9  O   UNL     1       4.870   3.311  -7.667  1.00  0.00    -0.550 OA
ENDBRANCH   6   7
ENDBRANCH   5   6
ENDBRANCH   4   5
ENDBRANCH   3   4
ENDBRANCH   2   3
ENDBRANCH   1   2
BRANCH   1  10
ATOM     10  C   UNL     1      -1.109   3.000  -5.672  1.00  0.00     0.000 C 
BRANCH  10  11
ATOM     11  C   UNL     1      -2.575   3.446  -5.810  1.00  0.00    -0.000 C 
BRANCH  11  12
ATOM     12  C   UNL     1      -3.102   4.145  -4.547  1.00  0.00    -0.000 C 
BRANCH  12  13
ATOM     13  C   UNL     1      -4.136   3.299  -3.788  1.00  0.00    -0.000 C 
BRANCH  13  14
ATOM     14  C   UNL     1      -3.510   2.654  -2.544  1.00  0.00    -0.000 C 
BRANCH  14  15
ATOM     15  C   UNL     1      -2.815   1.335  -2.900  1.00  0.00    -0.003 C 
ATOM     16  C   UNL     1      -3.793   0.350  -3.533  1.00  0.00     0.004 C 
ENDBRANCH  14  15
ENDBRANCH  13  14
ENDBRANCH  12  13
ENDBRANCH  11  12
ENDBRANCH  10  11
ENDBRANCH   1  10
TORSDOF 12
ENDMDL
