MODEL 1
REMARK VINA RESULT:    -7.864      0.000      0.000
REMARK INTER + INTRA:          -9.746
REMARK INTER:                  -9.473
REMARK INTRA:                  -0.272
REMARK UNBOUND:                -0.272
REMARK SMILES O=c1c(O)c(-c2ccc(O)cc2O)oc2cc(O)cc(O)c12
REMARK SMILES IDX 5 1 3 2 2 3 1 4 22 5 20 6 19 7 17 8 16 9 15 10 14 11 6 12
REMARK SMILES IDX 8 13 7 14 9 15 11 16 12 17 10 18 13 20 4 22 21 24 18 26
REMARK H PARENT 10 19 13 21 4 23 21 25 18 27
REMARK Flexibility Score: inf
ROOT
ATOM      1  C   UNL     1      17.875   3.218  78.414  1.00  0.00     0.184 A 
ATOM      2  C   UNL     1      18.566   3.493  77.226  1.00  0.00     0.208 A 
ATOM      3  C   UNL     1      19.038   2.423  76.449  1.00  0.00     0.238 A 
ATOM      4  O   UNL     1      19.604   2.675  75.353  1.00  0.00    -0.285 OA
ATOM      5  C   UNL     1      18.835   1.092  76.888  1.00  0.00     0.111 A 
ATOM      6  C   UNL     1      19.304  -0.069  76.202  1.00  0.00     0.134 A 
ATOM      7  C   UNL     1      18.939  -1.339  76.665  1.00  0.00     0.093 A 
ATOM      8  C   UNL     1      18.179  -1.493  77.824  1.00  0.00     0.123 A 
ATOM      9  C   UNL     1      17.763  -0.366  78.535  1.00  0.00     0.094 A 
ATOM     10  C   UNL     1      18.080   0.915  78.078  1.00  0.00     0.146 A 
ATOM     11  O   UNL     1      17.654   1.961  78.776  1.00  0.00    -0.451 OA
ENDROOT
BRANCH   1  12
ATOM     12  C   UNL     1      17.375   4.305  79.284  1.00  0.00     0.063 A 
ATOM     13  C   UNL     1      16.034   6.320  79.539  1.00  0.00     0.047 A 
ATOM     14  C   UNL     1      16.478   5.252  78.757  1.00  0.00     0.020 A 
ATOM     15  C   UNL     1      16.483   6.464  80.853  1.00  0.00     0.119 A 
ATOM     16  C   UNL     1      17.379   5.528  81.389  1.00  0.00     0.093 A 
ATOM     17  C   UNL     1      17.823   4.447  80.618  1.00  0.00     0.130 A 
BRANCH  15  18
ATOM     18  O   UNL     1      16.036   7.537  81.620  1.00  0.00    -0.508 OA
ATOM     19  H   UNL     1      16.660   8.046  82.235  1.00  0.00     0.293 HD
ENDBRANCH  15  18
BRANCH  17  20
ATOM     20  O   UNL     1      18.686   3.524  81.213  1.00  0.00    -0.507 OA
ATOM     21  H   UNL     1      19.679   3.493  81.022  1.00  0.00     0.293 HD
ENDBRANCH  17  20
ENDBRANCH   1  12
BRANCH   2  22
ATOM     22  O   UNL     1      18.755   4.817  76.818  1.00  0.00    -0.502 OA
ATOM     23  H   UNL     1      18.807   5.585  77.476  1.00  0.00     0.293 HD
ENDBRANCH   2  22
BRANCH   6  24
ATOM     24  O   UNL     1      20.146  -0.030  75.086  1.00  0.00    -0.507 OA
ATOM     25  H   UNL     1      20.416  -0.834  74.541  1.00  0.00     0.293 HD
ENDBRANCH   6  24
BRANCH   8  26
ATOM     26  O   UNL     1      17.848  -2.773  78.264  1.00  0.00    -0.508 OA
ATOM     27  H   UNL     1      17.293  -3.401  77.694  1.00  0.00     0.293 HD
ENDBRANCH   8  26
TORSDOF 6
ENDMDL
MODEL 2
REMARK VINA RESULT:    -7.831      4.191      5.786
REMARK INTER + INTRA:          -9.706
REMARK INTER:                  -9.369
REMARK INTRA:                  -0.336
REMARK UNBOUND:                -0.272
REMARK SMILES O=c1c(O)c(-c2ccc(O)cc2O)oc2cc(O)cc(O)c12
REMARK SMILES IDX 5 1 3 2 2 3 1 4 22 5 20 6 19 7 17 8 16 9 15 10 14 11 6 12
REMARK SMILES IDX 8 13 7 14 9 15 11 16 12 17 10 18 13 20 4 22 21 24 18 26
REMARK H PARENT 10 19 13 21 4 23 21 25 18 27
REMARK Flexibility Score: inf
ROOT
ATOM      1  C   UNL     1      13.858   4.339  81.234  1.00  0.00     0.184 A 
ATOM      2  C   UNL     1      14.913   5.254  81.102  1.00  0.00     0.208 A 
ATOM      3  C   UNL     1      16.221   4.768  80.953  1.00  0.00     0.238 A 
ATOM      4  O   UNL     1      17.155   5.593  80.774  1.00  0.00    -0.285 OA
ATOM      5  C   UNL     1      16.458   3.372  80.966  1.00  0.00     0.111 A 
ATOM      6  C   UNL     1      17.748   2.768  80.862  1.00  0.00     0.134 A 
ATOM      7  C   UNL     1      17.851   1.375  80.763  1.00  0.00     0.093 A 
ATOM      8  C   UNL     1      16.721   0.561  80.829  1.00  0.00     0.123 A 
ATOM      9  C   UNL     1      15.461   1.138  80.989  1.00  0.00     0.094 A 
ATOM     10  C   UNL     1      15.321   2.526  81.053  1.00  0.00     0.146 A 
ATOM     11  O   UNL     1      14.103   3.036  81.192  1.00  0.00    -0.451 OA
ENDROOT
BRANCH   1  12
ATOM     12  C   UNL     1      12.463   4.794  81.418  1.00  0.00     0.063 A 
ATOM     13  C   UNL     1      10.810   5.951  82.779  1.00  0.00     0.047 A 
ATOM     14  C   UNL     1      12.130   5.556  82.552  1.00  0.00     0.020 A 
ATOM     15  C   UNL     1       9.802   5.586  81.884  1.00  0.00     0.119 A 
ATOM     16  C   UNL     1      10.121   4.825  80.751  1.00  0.00     0.093 A 
ATOM     17  C   UNL     1      11.442   4.431  80.507  1.00  0.00     0.130 A 
BRANCH  15  18
ATOM     18  O   UNL     1       8.490   5.983  82.126  1.00  0.00    -0.508 OA
ATOM     19  H   UNL     1       8.260   6.943  82.353  1.00  0.00     0.293 HD
ENDBRANCH  15  18
BRANCH  17  20
ATOM     20  O   UNL     1      11.710   3.705  79.344  1.00  0.00    -0.507 OA
ATOM     21  H   UNL     1      11.631   2.698  79.291  1.00  0.00     0.293 HD
ENDBRANCH  17  20
ENDBRANCH   1  12
BRANCH   2  22
ATOM     22  O   UNL     1      14.649   6.627  81.096  1.00  0.00    -0.502 OA
ATOM     23  H   UNL     1      13.784   7.015  81.453  1.00  0.00     0.293 HD
ENDBRANCH   2  22
BRANCH   6  24
ATOM     24  O   UNL     1      18.949   3.483  80.879  1.00  0.00    -0.507 OA
ATOM     25  H   UNL     1      19.427   3.824  80.059  1.00  0.00     0.293 HD
ENDBRANCH   6  24
BRANCH   8  26
ATOM     26  O   UNL     1      16.863  -0.822  80.743  1.00  0.00    -0.508 OA
ATOM     27  H   UNL     1      16.102  -1.449  80.977  1.00  0.00     0.293 HD
ENDBRANCH   8  26
TORSDOF 6
ENDMDL
MODEL 3
REMARK VINA RESULT:    -7.821      2.823      3.837
REMARK INTER + INTRA:          -9.694
REMARK INTER:                  -9.302
REMARK INTRA:                  -0.392
REMARK UNBOUND:                -0.272
REMARK SMILES O=c1c(O)c(-c2ccc(O)cc2O)oc2cc(O)cc(O)c12
REMARK SMILES IDX 5 1 3 2 2 3 1 4 22 5 20 6 19 7 17 8 16 9 15 10 14 11 6 12
REMARK SMILES IDX 8 13 7 14 9 15 11 16 12 17 10 18 13 20 4 22 21 24 18 26
REMARK H PARENT 10 19 13 21 4 23 21 25 18 27
REMARK Flexibility Score: inf
ROOT
ATOM      1  C   UNL     1      16.012   3.982  78.405  1.00  0.00     0.184 A 
ATOM      2  C   UNL     1      14.908   3.140  78.207  1.00  0.00     0.208 A 
ATOM      3  C   UNL     1      14.834   2.379  77.030  1.00  0.00     0.238 A 
ATOM      4  O   UNL     1      13.872   1.580  76.887  1.00  0.00    -0.285 OA
ATOM      5  C   UNL     1      15.853   2.494  76.053  1.00  0.00     0.111 A 
ATOM      6  C   UNL     1      15.862   1.801  74.805  1.00  0.00     0.134 A 
ATOM      7  C   UNL     1      16.981   1.897  73.970  1.00  0.00     0.093 A 
ATOM      8  C   UNL     1      18.063   2.710  74.305  1.00  0.00     0.123 A 
ATOM      9  C   UNL     1      18.041   3.437  75.496  1.00  0.00     0.094 A 
ATOM     10  C   UNL     1      16.955   3.333  76.368  1.00  0.00     0.146 A 
ATOM     11  O   UNL     1      16.978   4.031  77.497  1.00  0.00    -0.451 OA
ENDROOT
BRANCH   1  12
ATOM     12  C   UNL     1      16.132   4.823  79.615  1.00  0.00     0.063 A 
ATOM     13  C   UNL     1      15.388   6.760  80.889  1.00  0.00     0.047 A 
ATOM     14  C   UNL     1      15.262   5.915  79.784  1.00  0.00     0.020 A 
ATOM     15  C   UNL     1      16.388   6.533  81.836  1.00  0.00     0.119 A 
ATOM     16  C   UNL     1      17.263   5.449  81.678  1.00  0.00     0.093 A 
ATOM     17  C   UNL     1      17.140   4.589  80.580  1.00  0.00     0.130 A 
BRANCH  15  18
ATOM     18  O   UNL     1      16.506   7.385  82.931  1.00  0.00    -0.508 OA
ATOM     19  H   UNL     1      17.084   7.148  83.728  1.00  0.00     0.293 HD
ENDBRANCH  15  18
BRANCH  17  20
ATOM     20  O   UNL     1      18.014   3.504  80.491  1.00  0.00    -0.507 OA
ATOM     21  H   UNL     1      17.710   2.566  80.263  1.00  0.00     0.293 HD
ENDBRANCH  17  20
ENDBRANCH   1  12
BRANCH   2  22
ATOM     22  O   UNL     1      13.915   3.049  79.187  1.00  0.00    -0.502 OA
ATOM     23  H   UNL     1      13.661   3.833  79.776  1.00  0.00     0.293 HD
ENDBRANCH   2  22
BRANCH   6  24
ATOM     24  O   UNL     1      14.794   1.033  74.330  1.00  0.00    -0.507 OA
ATOM     25  H   UNL     1      14.704   0.035  74.449  1.00  0.00     0.293 HD
ENDBRANCH   6  24
BRANCH   8  26
ATOM     26  O   UNL     1      19.154   2.793  73.442  1.00  0.00    -0.508 OA
ATOM     27  H   UNL     1      19.091   2.487  72.478  1.00  0.00     0.293 HD
ENDBRANCH   8  26
TORSDOF 6
ENDMDL
MODEL 4
REMARK VINA RESULT:    -7.790      3.002      6.959
REMARK INTER + INTRA:          -9.657
REMARK INTER:                  -9.362
REMARK INTRA:                  -0.295
REMARK UNBOUND:                -0.272
REMARK SMILES O=c1c(O)c(-c2ccc(O)cc2O)oc2cc(O)cc(O)c12
REMARK SMILES IDX 5 1 3 2 2 3 1 4 22 5 20 6 19 7 17 8 16 9 15 10 14 11 6 12
REMARK SMILES IDX 8 13 7 14 9 15 11 16 12 17 10 18 13 20 4 22 21 24 18 26
REMARK H PARENT 10 19 13 21 4 23 21 25 18 27
REMARK Flexibility Score: inf
ROOT
ATOM      1  C   UNL     1      16.465   4.427  79.791  1.00  0.00     0.184 A 
ATOM      2  C   UNL     1      16.641   5.068  81.026  1.00  0.00     0.208 A 
ATOM      3  C   UNL     1      15.511   5.368  81.804  1.00  0.00     0.238 A 
ATOM      4  O   UNL     1      15.680   5.887  82.938  1.00  0.00    -0.285 OA
ATOM      5  C   UNL     1      14.219   5.047  81.321  1.00  0.00     0.111 A 
ATOM      6  C   UNL     1      13.001   5.340  82.007  1.00  0.00     0.134 A 
ATOM      7  C   UNL     1      11.788   4.867  81.492  1.00  0.00     0.093 A 
ATOM      8  C   UNL     1      11.740   4.169  80.286  1.00  0.00     0.123 A 
ATOM      9  C   UNL     1      12.918   3.927  79.578  1.00  0.00     0.094 A 
ATOM     10  C   UNL     1      14.148   4.354  80.084  1.00  0.00     0.146 A 
ATOM     11  O   UNL     1      15.246   4.092  79.386  1.00  0.00    -0.451 OA
ENDROOT
BRANCH   1  12
ATOM     12  C   UNL     1      17.615   4.107  78.919  1.00  0.00     0.063 A 
ATOM     13  C   UNL     1      19.749   2.975  78.614  1.00  0.00     0.047 A 
ATOM     14  C   UNL     1      18.624   3.250  79.395  1.00  0.00     0.020 A 
ATOM     15  C   UNL     1      19.888   3.557  77.352  1.00  0.00     0.119 A 
ATOM     16  C   UNL     1      18.891   4.414  76.868  1.00  0.00     0.093 A 
ATOM     17  C   UNL     1      17.754   4.690  77.637  1.00  0.00     0.130 A 
BRANCH  15  18
ATOM     18  O   UNL     1      21.018   3.278  76.586  1.00  0.00    -0.508 OA
ATOM     19  H   UNL     1      21.004   2.572  75.861  1.00  0.00     0.293 HD
ENDBRANCH  15  18
BRANCH  17  20
ATOM     20  O   UNL     1      16.774   5.522  77.090  1.00  0.00    -0.507 OA
ATOM     21  H   UNL     1      16.146   5.226  76.354  1.00  0.00     0.293 HD
ENDBRANCH  17  20
ENDBRANCH   1  12
BRANCH   2  22
ATOM     22  O   UNL     1      17.927   5.376  81.476  1.00  0.00    -0.502 OA
ATOM     23  H   UNL     1      18.392   6.244  81.239  1.00  0.00     0.293 HD
ENDBRANCH   2  22
BRANCH   6  24
ATOM     24  O   UNL     1      12.927   6.108  83.173  1.00  0.00    -0.507 OA
ATOM     25  H   UNL     1      13.722   6.487  83.665  1.00  0.00     0.293 HD
ENDBRANCH   6  24
BRANCH   8  26
ATOM     26  O   UNL     1      10.513   3.727  79.796  1.00  0.00    -0.508 OA
ATOM     27  H   UNL     1      10.164   4.026  78.893  1.00  0.00     0.293 HD
ENDBRANCH   8  26
TORSDOF 6
ENDMDL
MODEL 5
REMARK VINA RESULT:    -7.768      4.178      6.538
REMARK INTER + INTRA:          -9.630
REMARK INTER:                  -9.437
REMARK INTRA:                  -0.193
REMARK UNBOUND:                -0.272
REMARK SMILES O=c1c(O)c(-c2ccc(O)cc2O)oc2cc(O)cc(O)c12
REMARK SMILES IDX 5 1 3 2 2 3 1 4 22 5 20 6 19 7 17 8 16 9 15 10 14 11 6 12
REMARK SMILES IDX 8 13 7 14 9 15 11 16 12 17 10 18 13 20 4 22 21 24 18 26
REMARK H PARENT 10 19 13 21 4 23 21 25 18 27
REMARK Flexibility Score: inf
ROOT
ATOM      1  C   UNL     1      13.673   4.649  81.156  1.00  0.00     0.184 A 
ATOM      2  C   UNL     1      14.464   4.098  82.175  1.00  0.00     0.208 A 
ATOM      3  C   UNL     1      15.803   3.777  81.900  1.00  0.00     0.238 A 
ATOM      4  O   UNL     1      16.524   3.340  82.835  1.00  0.00    -0.285 OA
ATOM      5  C   UNL     1      16.323   3.987  80.600  1.00  0.00     0.111 A 
ATOM      6  C   UNL     1      17.654   3.663  80.197  1.00  0.00     0.134 A 
ATOM      7  C   UNL     1      18.097   4.028  78.920  1.00  0.00     0.093 A 
ATOM      8  C   UNL     1      17.241   4.646  78.009  1.00  0.00     0.123 A 
ATOM      9  C   UNL     1      15.921   4.915  78.372  1.00  0.00     0.094 A 
ATOM     10  C   UNL     1      15.460   4.597  79.652  1.00  0.00     0.146 A 
ATOM     11  O   UNL     1      14.201   4.883  79.962  1.00  0.00    -0.451 OA
ENDROOT
BRANCH   1  12
ATOM     12  C   UNL     1      12.251   4.984  81.382  1.00  0.00     0.063 A 
ATOM     13  C   UNL     1      10.557   6.070  82.752  1.00  0.00     0.047 A 
ATOM     14  C   UNL     1      11.897   5.785  82.483  1.00  0.00     0.020 A 
ATOM     15  C   UNL     1       9.550   5.557  81.932  1.00  0.00     0.119 A 
ATOM     16  C   UNL     1       9.890   4.756  80.833  1.00  0.00     0.093 A 
ATOM     17  C   UNL     1      11.230   4.471  80.547  1.00  0.00     0.130 A 
BRANCH  15  18
ATOM     18  O   UNL     1       8.218   5.846  82.214  1.00  0.00    -0.508 OA
ATOM     19  H   UNL     1       7.701   5.331  82.917  1.00  0.00     0.293 HD
ENDBRANCH  15  18
BRANCH  17  20
ATOM     20  O   UNL     1      11.514   3.698  79.418  1.00  0.00    -0.507 OA
ATOM     21  H   UNL     1      11.608   4.090  78.490  1.00  0.00     0.293 HD
ENDBRANCH  17  20
ENDBRANCH   1  12
BRANCH   2  22
ATOM     22  O   UNL     1      13.923   3.898  83.448  1.00  0.00    -0.502 OA
ATOM     23  H   UNL     1      13.304   4.569  83.887  1.00  0.00     0.293 HD
ENDBRANCH   2  22
BRANCH   6  24
ATOM     24  O   UNL     1      18.564   2.965  80.997  1.00  0.00    -0.507 OA
ATOM     25  H   UNL     1      19.135   2.196  80.683  1.00  0.00     0.293 HD
ENDBRANCH   6  24
BRANCH   8  26
ATOM     26  O   UNL     1      17.712   4.980  76.741  1.00  0.00    -0.508 OA
ATOM     27  H   UNL     1      18.563   5.515  76.617  1.00  0.00     0.293 HD
ENDBRANCH   8  26
TORSDOF 6
ENDMDL
MODEL 6
REMARK VINA RESULT:    -7.756      2.598      6.844
REMARK INTER + INTRA:          -9.615
REMARK INTER:                  -9.349
REMARK INTRA:                  -0.267
REMARK UNBOUND:                -0.272
REMARK SMILES O=c1c(O)c(-c2ccc(O)cc2O)oc2cc(O)cc(O)c12
REMARK SMILES IDX 5 1 3 2 2 3 1 4 22 5 20 6 19 7 17 8 16 9 15 10 14 11 6 12
REMARK SMILES IDX 8 13 7 14 9 15 11 16 12 17 10 18 13 20 4 22 21 24 18 26
REMARK H PARENT 10 19 13 21 4 23 21 25 18 27
REMARK Flexibility Score: inf
ROOT
ATOM      1  C   UNL     1      18.067   0.588  76.809  1.00  0.00     0.184 A 
ATOM      2  C   UNL     1      18.849   1.737  76.991  1.00  0.00     0.208 A 
ATOM      3  C   UNL     1      18.210   2.978  77.148  1.00  0.00     0.238 A 
ATOM      4  O   UNL     1      18.915   3.996  77.372  1.00  0.00    -0.285 OA
ATOM      5  C   UNL     1      16.797   3.053  77.092  1.00  0.00     0.111 A 
ATOM      6  C   UNL     1      16.045   4.262  77.198  1.00  0.00     0.134 A 
ATOM      7  C   UNL     1      14.647   4.202  77.252  1.00  0.00     0.093 A 
ATOM      8  C   UNL     1      13.972   2.987  77.137  1.00  0.00     0.123 A 
ATOM      9  C   UNL     1      14.696   1.806  76.974  1.00  0.00     0.094 A 
ATOM     10  C   UNL     1      16.092   1.828  76.954  1.00  0.00     0.146 A 
ATOM     11  O   UNL     1      16.743   0.680  76.811  1.00  0.00    -0.451 OA
ENDROOT
BRANCH   1  12
ATOM     12  C   UNL     1      18.685  -0.742  76.615  1.00  0.00     0.063 A 
ATOM     13  C   UNL     1      19.132  -2.977  77.469  1.00  0.00     0.047 A 
ATOM     14  C   UNL     1      18.514  -1.732  77.599  1.00  0.00     0.020 A 
ATOM     15  C   UNL     1      19.936  -3.250  76.360  1.00  0.00     0.119 A 
ATOM     16  C   UNL     1      20.116  -2.271  75.374  1.00  0.00     0.093 A 
ATOM     17  C   UNL     1      19.493  -1.022  75.488  1.00  0.00     0.130 A 
BRANCH  15  18
ATOM     18  O   UNL     1      20.551  -4.494  76.245  1.00  0.00    -0.508 OA
ATOM     19  H   UNL     1      21.141  -4.864  76.981  1.00  0.00     0.293 HD
ENDBRANCH  15  18
BRANCH  17  20
ATOM     20  O   UNL     1      19.678  -0.097  74.458  1.00  0.00    -0.507 OA
ATOM     21  H   UNL     1      18.912   0.380  74.000  1.00  0.00     0.293 HD
ENDBRANCH  17  20
ENDBRANCH   1  12
BRANCH   2  22
ATOM     22  O   UNL     1      20.242   1.634  77.039  1.00  0.00    -0.502 OA
ATOM     23  H   UNL     1      20.835   2.407  77.315  1.00  0.00     0.293 HD
ENDBRANCH   2  22
BRANCH   6  24
ATOM     24  O   UNL     1      16.616   5.538  77.229  1.00  0.00    -0.507 OA
ATOM     25  H   UNL     1      16.129   6.380  77.494  1.00  0.00     0.293 HD
ENDBRANCH   6  24
BRANCH   8  26
ATOM     26  O   UNL     1      12.580   2.968  77.178  1.00  0.00    -0.508 OA
ATOM     27  H   UNL     1      12.029   3.760  76.867  1.00  0.00     0.293 HD
ENDBRANCH   8  26
TORSDOF 6
ENDMDL
MODEL 7
REMARK VINA RESULT:    -7.694      2.664      6.486
REMARK INTER + INTRA:          -9.540
REMARK INTER:                  -9.160
REMARK INTRA:                  -0.380
REMARK UNBOUND:                -0.272
REMARK SMILES O=c1c(O)c(-c2ccc(O)cc2O)oc2cc(O)cc(O)c12
REMARK SMILES IDX 5 1 3 2 2 3 1 4 22 5 20 6 19 7 17 8 16 9 15 10 14 11 6 12
REMARK SMILES IDX 8 13 7 14 9 15 11 16 12 17 10 18 13 20 4 22 21 24 18 26
REMARK H PARENT 10 19 13 21 4 23 21 25 18 27
REMARK Flexibility Score: inf
ROOT
ATOM      1  C   UNL     1      17.562   2.656  79.679  1.00  0.00     0.184 A 
ATOM      2  C   UNL     1      16.909   1.426  79.851  1.00  0.00     0.208 A 
ATOM      3  C   UNL     1      16.142   1.219  81.008  1.00  0.00     0.238 A 
ATOM      4  O   UNL     1      15.510   0.137  81.128  1.00  0.00    -0.285 OA
ATOM      5  C   UNL     1      16.063   2.235  81.991  1.00  0.00     0.111 A 
ATOM      6  C   UNL     1      15.348   2.120  83.221  1.00  0.00     0.134 A 
ATOM      7  C   UNL     1      15.237   3.234  84.063  1.00  0.00     0.093 A 
ATOM      8  C   UNL     1      15.868   4.438  83.752  1.00  0.00     0.123 A 
ATOM      9  C   UNL     1      16.618   4.544  82.580  1.00  0.00     0.094 A 
ATOM     10  C   UNL     1      16.717   3.463  81.702  1.00  0.00     0.146 A 
ATOM     11  O   UNL     1      17.429   3.610  80.591  1.00  0.00    -0.451 OA
ENDROOT
BRANCH   1  12
ATOM     12  C   UNL     1      18.402   2.922  78.491  1.00  0.00     0.063 A 
ATOM     13  C   UNL     1      20.439   2.475  77.236  1.00  0.00     0.047 A 
ATOM     14  C   UNL     1      19.599   2.205  78.319  1.00  0.00     0.020 A 
ATOM     15  C   UNL     1      20.101   3.468  76.315  1.00  0.00     0.119 A 
ATOM     16  C   UNL     1      18.912   4.191  76.477  1.00  0.00     0.093 A 
ATOM     17  C   UNL     1      18.056   3.923  77.552  1.00  0.00     0.130 A 
BRANCH  15  18
ATOM     18  O   UNL     1      20.951   3.730  75.242  1.00  0.00    -0.508 OA
ATOM     19  H   UNL     1      20.695   4.382  74.511  1.00  0.00     0.293 HD
ENDBRANCH  15  18
BRANCH  17  20
ATOM     20  O   UNL     1      16.866   4.648  77.645  1.00  0.00    -0.507 OA
ATOM     21  H   UNL     1      15.999   4.246  77.977  1.00  0.00     0.293 HD
ENDBRANCH  17  20
ENDBRANCH   1  12
BRANCH   2  22
ATOM     22  O   UNL     1      17.008   0.440  78.866  1.00  0.00    -0.502 OA
ATOM     23  H   UNL     1      16.395   0.413  78.060  1.00  0.00     0.293 HD
ENDBRANCH   2  22
BRANCH   6  24
ATOM     24  O   UNL     1      14.756   0.936  83.672  1.00  0.00    -0.507 OA
ATOM     25  H   UNL     1      13.811   0.860  84.017  1.00  0.00     0.293 HD
ENDBRANCH   6  24
BRANCH   8  26
ATOM     26  O   UNL     1      15.749   5.520  84.620  1.00  0.00    -0.508 OA
ATOM     27  H   UNL     1      15.129   5.491  85.421  1.00  0.00     0.293 HD
ENDBRANCH   8  26
TORSDOF 6
ENDMDL
MODEL 8
REMARK VINA RESULT:    -7.613      2.126      7.013
REMARK INTER + INTRA:          -9.443
REMARK INTER:                  -9.093
REMARK INTRA:                  -0.351
REMARK UNBOUND:                -0.272
REMARK SMILES O=c1c(O)c(-c2ccc(O)cc2O)oc2cc(O)cc(O)c12
REMARK SMILES IDX 5 1 3 2 2 3 1 4 22 5 20 6 19 7 17 8 16 9 15 10 14 11 6 12
REMARK SMILES IDX 8 13 7 14 9 15 11 16 12 17 10 18 13 20 4 22 21 24 18 26
REMARK H PARENT 10 19 13 21 4 23 21 25 18 27
REMARK Flexibility Score: inf
ROOT
ATOM      1  C   UNL     1      19.803   1.237  76.048  1.00  0.00     0.184 A 
ATOM      2  C   UNL     1      19.344   2.210  75.149  1.00  0.00     0.208 A 
ATOM      3  C   UNL     1      18.733   3.369  75.653  1.00  0.00     0.238 A 
ATOM      4  O   UNL     1      18.379   4.266  74.844  1.00  0.00    -0.285 OA
ATOM      5  C   UNL     1      18.565   3.524  77.051  1.00  0.00     0.111 A 
ATOM      6  C   UNL     1      17.925   4.639  77.672  1.00  0.00     0.134 A 
ATOM      7  C   UNL     1      17.925   4.745  79.069  1.00  0.00     0.093 A 
ATOM      8  C   UNL     1      18.483   3.747  79.867  1.00  0.00     0.123 A 
ATOM      9  C   UNL     1      19.060   2.625  79.272  1.00  0.00     0.094 A 
ATOM     10  C   UNL     1      19.109   2.508  77.881  1.00  0.00     0.146 A 
ATOM     11  O   UNL     1      19.679   1.431  77.355  1.00  0.00    -0.451 OA
ENDROOT
BRANCH   1  12
ATOM     12  C   UNL     1      20.432  -0.014  75.573  1.00  0.00     0.063 A 
ATOM     13  C   UNL     1      22.280  -1.116  74.434  1.00  0.00     0.047 A 
ATOM     14  C   UNL     1      21.688   0.042  74.942  1.00  0.00     0.020 A 
ATOM     15  C   UNL     1      21.626  -2.345  74.541  1.00  0.00     0.119 A 
ATOM     16  C   UNL     1      20.374  -2.414  75.166  1.00  0.00     0.093 A 
ATOM     17  C   UNL     1      19.774  -1.262  75.688  1.00  0.00     0.130 A 
BRANCH  15  18
ATOM     18  O   UNL     1      22.227  -3.491  74.026  1.00  0.00    -0.508 OA
ATOM     19  H   UNL     1      23.203  -3.503  73.757  1.00  0.00     0.293 HD
ENDBRANCH  15  18
BRANCH  17  20
ATOM     20  O   UNL     1      18.542  -1.394  76.333  1.00  0.00    -0.507 OA
ATOM     21  H   UNL     1      17.965  -0.603  76.589  1.00  0.00     0.293 HD
ENDBRANCH  17  20
ENDBRANCH   1  12
BRANCH   2  22
ATOM     22  O   UNL     1      19.519   2.029  73.774  1.00  0.00    -0.502 OA
ATOM     23  H   UNL     1      19.274   1.166  73.304  1.00  0.00     0.293 HD
ENDBRANCH   2  22
BRANCH   6  24
ATOM     24  O   UNL     1      17.258   5.647  76.970  1.00  0.00    -0.507 OA
ATOM     25  H   UNL     1      16.484   6.185  77.331  1.00  0.00     0.293 HD
ENDBRANCH   6  24
BRANCH   8  26
ATOM     26  O   UNL     1      18.450   3.879  81.254  1.00  0.00    -0.508 OA
ATOM     27  H   UNL     1      18.607   3.086  81.865  1.00  0.00     0.293 HD
ENDBRANCH   8  26
TORSDOF 6
ENDMDL
MODEL 9
REMARK VINA RESULT:    -7.542      2.861      4.311
REMARK INTER + INTRA:          -9.357
REMARK INTER:                  -8.944
REMARK INTRA:                  -0.413
REMARK UNBOUND:                -0.272
REMARK SMILES O=c1c(O)c(-c2ccc(O)cc2O)oc2cc(O)cc(O)c12
REMARK SMILES IDX 5 1 3 2 2 3 1 4 22 5 20 6 19 7 17 8 16 9 15 10 14 11 6 12
REMARK SMILES IDX 8 13 7 14 9 15 11 16 12 17 10 18 13 20 4 22 21 24 18 26
REMARK H PARENT 10 19 13 21 4 23 21 25 18 27
REMARK Flexibility Score: inf
ROOT
ATOM      1  C   UNL     1      16.469   4.694  80.271  1.00  0.00     0.184 A 
ATOM      2  C   UNL     1      17.719   4.351  80.808  1.00  0.00     0.208 A 
ATOM      3  C   UNL     1      18.729   3.895  79.946  1.00  0.00     0.238 A 
ATOM      4  O   UNL     1      19.866   3.647  80.425  1.00  0.00    -0.285 OA
ATOM      5  C   UNL     1      18.463   3.760  78.561  1.00  0.00     0.111 A 
ATOM      6  C   UNL     1      19.399   3.269  77.600  1.00  0.00     0.134 A 
ATOM      7  C   UNL     1      19.068   3.295  76.240  1.00  0.00     0.093 A 
ATOM      8  C   UNL     1      17.815   3.731  75.810  1.00  0.00     0.123 A 
ATOM      9  C   UNL     1      16.873   4.158  76.746  1.00  0.00     0.094 A 
ATOM     10  C   UNL     1      17.185   4.180  78.107  1.00  0.00     0.146 A 
ATOM     11  O   UNL     1      16.264   4.607  78.963  1.00  0.00    -0.451 OA
ENDROOT
BRANCH   1  12
ATOM     12  C   UNL     1      15.362   5.158  81.133  1.00  0.00     0.063 A 
ATOM     13  C   UNL     1      13.324   4.649  82.364  1.00  0.00     0.047 A 
ATOM     14  C   UNL     1      14.411   4.230  81.595  1.00  0.00     0.020 A 
ATOM     15  C   UNL     1      13.165   6.001  82.678  1.00  0.00     0.119 A 
ATOM     16  C   UNL     1      14.104   6.936  82.222  1.00  0.00     0.093 A 
ATOM     17  C   UNL     1      15.204   6.526  81.459  1.00  0.00     0.130 A 
BRANCH  15  18
ATOM     18  O   UNL     1      12.073   6.406  83.443  1.00  0.00    -0.508 OA
ATOM     19  H   UNL     1      11.328   6.965  83.047  1.00  0.00     0.293 HD
ENDBRANCH  15  18
BRANCH  17  20
ATOM     20  O   UNL     1      16.128   7.495  81.062  1.00  0.00    -0.507 OA
ATOM     21  H   UNL     1      16.407   7.631  80.099  1.00  0.00     0.293 HD
ENDBRANCH  17  20
ENDBRANCH   1  12
BRANCH   2  22
ATOM     22  O   UNL     1      17.951   4.491  82.179  1.00  0.00    -0.502 OA
ATOM     23  H   UNL     1      17.946   3.702  82.814  1.00  0.00     0.293 HD
ENDBRANCH   2  22
BRANCH   6  24
ATOM     24  O   UNL     1      20.644   2.726  77.930  1.00  0.00    -0.507 OA
ATOM     25  H   UNL     1      21.488   2.853  77.391  1.00  0.00     0.293 HD
ENDBRANCH   6  24
BRANCH   8  26
ATOM     26  O   UNL     1      17.516   3.728  74.450  1.00  0.00    -0.508 OA
ATOM     27  H   UNL     1      16.984   2.976  74.026  1.00  0.00     0.293 HD
ENDBRANCH   8  26
TORSDOF 6
ENDMDL
