MODEL 1
REMARK VINA RESULT:    -6.454      0.000      0.000
REMARK INTER + INTRA:          -7.782
REMARK INTER:                  -7.586
REMARK INTRA:                  -0.196
REMARK UNBOUND:                -0.196
REMARK SMILES O=c1c(O)c(-c2ccc(O)cc2)oc2cc(O)cc(O)c12
REMARK SMILES IDX 5 1 3 2 2 3 1 4 21 5 19 6 18 7 16 8 15 9 14 10 13 11 6 12
REMARK SMILES IDX 7 13 8 14 9 15 12 16 11 17 10 18 4 20 20 22 17 24
REMARK H PARENT 10 19 4 21 20 23 17 25
REMARK Flexibility Score: inf
ROOT
ATOM      1  C   UNL     1      28.559  33.442 125.557  1.00  0.00     0.180 A 
ATOM      2  C   UNL     1      28.996  32.429 124.687  1.00  0.00     0.208 A 
ATOM      3  C   UNL     1      28.341  32.259 123.456  1.00  0.00     0.238 A 
ATOM      4  O   UNL     1      28.772  31.387 122.657  1.00  0.00    -0.285 OA
ATOM      5  C   UNL     1      27.249  33.095 123.118  1.00  0.00     0.111 A 
ATOM      6  C   UNL     1      26.487  32.985 121.917  1.00  0.00     0.134 A 
ATOM      7  C   UNL     1      25.511  33.948 121.628  1.00  0.00     0.093 A 
ATOM      8  C   UNL     1      25.225  34.975 122.527  1.00  0.00     0.123 A 
ATOM      9  C   UNL     1      25.923  35.056 123.733  1.00  0.00     0.094 A 
ATOM     10  C   UNL     1      26.927  34.132 124.032  1.00  0.00     0.146 A 
ATOM     11  O   UNL     1      27.575  34.251 125.185  1.00  0.00    -0.452 OA
ENDROOT
BRANCH   1  12
ATOM     12  C   UNL     1      29.182  33.665 126.883  1.00  0.00     0.021 A 
ATOM     13  C   UNL     1      30.458  34.247 126.958  1.00  0.00     0.016 A 
ATOM     14  C   UNL     1      31.056  34.486 128.199  1.00  0.00     0.047 A 
ATOM     15  C   UNL     1      30.378  34.160 129.381  1.00  0.00     0.115 A 
ATOM     16  C   UNL     1      28.500  33.358 128.075  1.00  0.00     0.016 A 
ATOM     17  C   UNL     1      29.099  33.600 129.314  1.00  0.00     0.047 A 
BRANCH  15  18
ATOM     18  O   UNL     1      30.964  34.394 130.623  1.00  0.00    -0.508 OA
ATOM     19  H   UNL     1      30.424  34.353 131.479  1.00  0.00     0.293 HD
ENDBRANCH  15  18
ENDBRANCH   1  12
BRANCH   2  20
ATOM     20  O   UNL     1      30.091  31.631 125.030  1.00  0.00    -0.502 OA
ATOM     21  H   UNL     1      30.019  30.861 125.684  1.00  0.00     0.293 HD
ENDBRANCH   2  20
BRANCH   6  22
ATOM     22  O   UNL     1      26.629  31.945 120.994  1.00  0.00    -0.507 OA
ATOM     23  H   UNL     1      27.450  31.786 120.430  1.00  0.00     0.293 HD
ENDBRANCH   6  22
BRANCH   8  24
ATOM     24  O   UNL     1      24.236  35.906 122.214  1.00  0.00    -0.508 OA
ATOM     25  H   UNL     1      24.279  36.858 122.557  1.00  0.00     0.293 HD
ENDBRANCH   8  24
TORSDOF 5
ENDMDL
MODEL 2
REMARK VINA RESULT:    -6.430      0.260      1.086
REMARK INTER + INTRA:          -7.754
REMARK INTER:                  -7.552
REMARK INTRA:                  -0.201
REMARK UNBOUND:                -0.196
REMARK SMILES O=c1c(O)c(-c2ccc(O)cc2)oc2cc(O)cc(O)c12
REMARK SMILES IDX 5 1 3 2 2 3 1 4 21 5 19 6 18 7 16 8 15 9 14 10 13 11 6 12
REMARK SMILES IDX 7 13 8 14 9 15 12 16 11 17 10 18 4 20 20 22 17 24
REMARK H PARENT 10 19 4 21 20 23 17 25
REMARK Flexibility Score: inf
ROOT
ATOM      1  C   UNL     1      28.619  33.366 125.653  1.00  0.00     0.180 A 
ATOM      2  C   UNL     1      29.146  32.379 124.804  1.00  0.00     0.208 A 
ATOM      3  C   UNL     1      28.552  32.171 123.549  1.00  0.00     0.238 A 
ATOM      4  O   UNL     1      29.063  31.325 122.770  1.00  0.00    -0.285 OA
ATOM      5  C   UNL     1      27.427  32.943 123.166  1.00  0.00     0.111 A 
ATOM      6  C   UNL     1      26.721  32.789 121.936  1.00  0.00     0.134 A 
ATOM      7  C   UNL     1      25.704  33.694 121.606  1.00  0.00     0.093 A 
ATOM      8  C   UNL     1      25.324  34.704 122.490  1.00  0.00     0.123 A 
ATOM      9  C   UNL     1      25.968  34.825 123.722  1.00  0.00     0.094 A 
ATOM     10  C   UNL     1      27.011  33.960 124.063  1.00  0.00     0.146 A 
ATOM     11  O   UNL     1      27.605  34.117 125.240  1.00  0.00    -0.452 OA
ENDROOT
BRANCH   1  12
ATOM     12  C   UNL     1      29.175  33.625 127.002  1.00  0.00     0.021 A 
ATOM     13  C   UNL     1      28.474  33.183 128.136  1.00  0.00     0.016 A 
ATOM     14  C   UNL     1      28.991  33.398 129.417  1.00  0.00     0.047 A 
ATOM     15  C   UNL     1      30.224  34.044 129.579  1.00  0.00     0.115 A 
ATOM     16  C   UNL     1      30.422  34.255 127.172  1.00  0.00     0.016 A 
ATOM     17  C   UNL     1      30.937  34.468 128.454  1.00  0.00     0.047 A 
BRANCH  15  18
ATOM     18  O   UNL     1      30.749  34.263 130.851  1.00  0.00    -0.508 OA
ATOM     19  H   UNL     1      31.527  34.894 131.000  1.00  0.00     0.293 HD
ENDBRANCH  15  18
ENDBRANCH   1  12
BRANCH   2  20
ATOM     20  O   UNL     1      30.271  31.645 125.192  1.00  0.00    -0.502 OA
ATOM     21  H   UNL     1      30.659  30.902 124.623  1.00  0.00     0.293 HD
ENDBRANCH   2  20
BRANCH   6  22
ATOM     22  O   UNL     1      26.958  31.758 121.022  1.00  0.00    -0.507 OA
ATOM     23  H   UNL     1      27.851  31.310 120.881  1.00  0.00     0.293 HD
ENDBRANCH   6  22
BRANCH   8  24
ATOM     24  O   UNL     1      24.297  35.576 122.136  1.00  0.00    -0.508 OA
ATOM     25  H   UNL     1      23.327  35.284 122.145  1.00  0.00     0.293 HD
ENDBRANCH   8  24
TORSDOF 5
ENDMDL
MODEL 3
REMARK VINA RESULT:    -6.326      2.141      3.710
REMARK INTER + INTRA:          -7.632
REMARK INTER:                  -7.484
REMARK INTRA:                  -0.148
REMARK UNBOUND:                -0.196
REMARK SMILES O=c1c(O)c(-c2ccc(O)cc2)oc2cc(O)cc(O)c12
REMARK SMILES IDX 5 1 3 2 2 3 1 4 21 5 19 6 18 7 16 8 15 9 14 10 13 11 6 12
REMARK SMILES IDX 7 13 8 14 9 15 12 16 11 17 10 18 4 20 20 22 17 24
REMARK H PARENT 10 19 4 21 20 23 17 25
REMARK Flexibility Score: inf
ROOT
ATOM      1  C   UNL     1      29.253  34.169 125.584  1.00  0.00     0.180 A 
ATOM      2  C   UNL     1      28.391  35.117 125.008  1.00  0.00     0.208 A 
ATOM      3  C   UNL     1      28.269  35.166 123.610  1.00  0.00     0.238 A 
ATOM      4  O   UNL     1      27.453  35.980 123.103  1.00  0.00    -0.285 OA
ATOM      5  C   UNL     1      29.022  34.277 122.806  1.00  0.00     0.111 A 
ATOM      6  C   UNL     1      29.007  34.266 121.379  1.00  0.00     0.134 A 
ATOM      7  C   UNL     1      29.691  33.257 120.689  1.00  0.00     0.093 A 
ATOM      8  C   UNL     1      30.443  32.301 121.371  1.00  0.00     0.123 A 
ATOM      9  C   UNL     1      30.514  32.339 122.764  1.00  0.00     0.094 A 
ATOM     10  C   UNL     1      29.811  33.311 123.481  1.00  0.00     0.146 A 
ATOM     11  O   UNL     1      29.896  33.306 124.807  1.00  0.00    -0.452 OA
ENDROOT
BRANCH   1  12
ATOM     12  C   UNL     1      29.455  34.073 127.049  1.00  0.00     0.021 A 
ATOM     13  C   UNL     1      28.403  33.622 127.863  1.00  0.00     0.016 A 
ATOM     14  C   UNL     1      28.578  33.503 129.246  1.00  0.00     0.047 A 
ATOM     15  C   UNL     1      29.812  33.820 129.828  1.00  0.00     0.115 A 
ATOM     16  C   UNL     1      30.697  34.370 127.639  1.00  0.00     0.016 A 
ATOM     17  C   UNL     1      30.870  34.250 129.021  1.00  0.00     0.047 A 
BRANCH  15  18
ATOM     18  O   UNL     1      29.998  33.706 131.204  1.00  0.00    -0.508 OA
ATOM     19  H   UNL     1      30.052  32.802 131.658  1.00  0.00     0.293 HD
ENDBRANCH  15  18
ENDBRANCH   1  12
BRANCH   2  20
ATOM     20  O   UNL     1      27.639  35.969 125.822  1.00  0.00    -0.502 OA
ATOM     21  H   UNL     1      26.872  35.638 126.395  1.00  0.00     0.293 HD
ENDBRANCH   2  20
BRANCH   6  22
ATOM     22  O   UNL     1      28.363  35.229 120.597  1.00  0.00    -0.507 OA
ATOM     23  H   UNL     1      28.817  36.026 120.178  1.00  0.00     0.293 HD
ENDBRANCH   6  22
BRANCH   8  24
ATOM     24  O   UNL     1      31.124  31.322 120.651  1.00  0.00    -0.508 OA
ATOM     25  H   UNL     1      31.573  31.531 119.767  1.00  0.00     0.293 HD
ENDBRANCH   8  24
TORSDOF 5
ENDMDL
MODEL 4
REMARK VINA RESULT:    -6.190      1.219      1.238
REMARK INTER + INTRA:          -7.472
REMARK INTER:                  -7.209
REMARK INTRA:                  -0.262
REMARK UNBOUND:                -0.196
REMARK SMILES O=c1c(O)c(-c2ccc(O)cc2)oc2cc(O)cc(O)c12
REMARK SMILES IDX 5 1 3 2 2 3 1 4 21 5 19 6 18 7 16 8 15 9 14 10 13 11 6 12
REMARK SMILES IDX 7 13 8 14 9 15 12 16 11 17 10 18 4 20 20 22 17 24
REMARK H PARENT 10 19 4 21 20 23 17 25
REMARK Flexibility Score: inf
ROOT
ATOM      1  C   UNL     1      29.233  33.329 125.276  1.00  0.00     0.180 A 
ATOM      2  C   UNL     1      29.933  32.440 124.443  1.00  0.00     0.208 A 
ATOM      3  C   UNL     1      29.607  32.385 123.078  1.00  0.00     0.238 A 
ATOM      4  O   UNL     1      30.276  31.627 122.327  1.00  0.00    -0.285 OA
ATOM      5  C   UNL     1      28.575  33.208 122.567  1.00  0.00     0.111 A 
ATOM      6  C   UNL     1      28.134  33.206 121.210  1.00  0.00     0.134 A 
ATOM      7  C   UNL     1      27.194  34.155 120.787  1.00  0.00     0.093 A 
ATOM      8  C   UNL     1      26.632  35.060 121.686  1.00  0.00     0.123 A 
ATOM      9  C   UNL     1      27.011  35.032 123.028  1.00  0.00     0.094 A 
ATOM     10  C   UNL     1      27.974  34.121 123.472  1.00  0.00     0.146 A 
ATOM     11  O   UNL     1      28.315  34.134 124.755  1.00  0.00    -0.452 OA
ENDROOT
BRANCH   1  12
ATOM     12  C   UNL     1      29.502  33.424 126.730  1.00  0.00     0.021 A 
ATOM     13  C   UNL     1      30.581  34.201 127.183  1.00  0.00     0.016 A 
ATOM     14  C   UNL     1      30.840  34.323 128.552  1.00  0.00     0.047 A 
ATOM     15  C   UNL     1      30.014  33.682 129.484  1.00  0.00     0.115 A 
ATOM     16  C   UNL     1      28.665  32.800 127.673  1.00  0.00     0.016 A 
ATOM     17  C   UNL     1      28.926  32.924 129.040  1.00  0.00     0.047 A 
BRANCH  15  18
ATOM     18  O   UNL     1      30.262  33.797 130.850  1.00  0.00    -0.508 OA
ATOM     19  H   UNL     1      30.125  34.671 131.342  1.00  0.00     0.293 HD
ENDBRANCH  15  18
ENDBRANCH   1  12
BRANCH   2  20
ATOM     20  O   UNL     1      30.965  31.653 124.964  1.00  0.00    -0.502 OA
ATOM     21  H   UNL     1      31.744  32.048 125.477  1.00  0.00     0.293 HD
ENDBRANCH   2  20
BRANCH   6  22
ATOM     22  O   UNL     1      28.564  32.284 120.251  1.00  0.00    -0.507 OA
ATOM     23  H   UNL     1      28.484  31.282 120.341  1.00  0.00     0.293 HD
ENDBRANCH   6  22
BRANCH   8  24
ATOM     24  O   UNL     1      25.688  35.980 121.233  1.00  0.00    -0.508 OA
ATOM     25  H   UNL     1      24.696  35.843 121.395  1.00  0.00     0.293 HD
ENDBRANCH   8  24
TORSDOF 5
ENDMDL
MODEL 5
REMARK VINA RESULT:    -5.839      2.548      6.748
REMARK INTER + INTRA:          -7.059
REMARK INTER:                  -6.781
REMARK INTRA:                  -0.278
REMARK UNBOUND:                -0.196
REMARK SMILES O=c1c(O)c(-c2ccc(O)cc2)oc2cc(O)cc(O)c12
REMARK SMILES IDX 5 1 3 2 2 3 1 4 21 5 19 6 18 7 16 8 15 9 14 10 13 11 6 12
REMARK SMILES IDX 7 13 8 14 9 15 12 16 11 17 10 18 4 20 20 22 17 24
REMARK H PARENT 10 19 4 21 20 23 17 25
REMARK Flexibility Score: inf
ROOT
ATOM      1  C   UNL     1      28.586  32.969 122.046  1.00  0.00     0.180 A 
ATOM      2  C   UNL     1      29.512  32.199 122.769  1.00  0.00     0.208 A 
ATOM      3  C   UNL     1      29.631  32.400 124.154  1.00  0.00     0.238 A 
ATOM      4  O   UNL     1      30.422  31.669 124.805  1.00  0.00    -0.285 OA
ATOM      5  C   UNL     1      28.833  33.379 124.795  1.00  0.00     0.111 A 
ATOM      6  C   UNL     1      28.900  33.695 126.184  1.00  0.00     0.134 A 
ATOM      7  C   UNL     1      27.972  34.589 126.735  1.00  0.00     0.093 A 
ATOM      8  C   UNL     1      27.026  35.228 125.934  1.00  0.00     0.123 A 
ATOM      9  C   UNL     1      26.992  34.972 124.562  1.00  0.00     0.094 A 
ATOM     10  C   UNL     1      27.880  34.057 123.992  1.00  0.00     0.146 A 
ATOM     11  O   UNL     1      27.807  33.833 122.685  1.00  0.00    -0.452 OA
ENDROOT
BRANCH   1  12
ATOM     12  C   UNL     1      28.422  32.833 120.579  1.00  0.00     0.021 A 
ATOM     13  C   UNL     1      27.328  32.115 120.070  1.00  0.00     0.016 A 
ATOM     14  C   UNL     1      27.142  31.992 118.689  1.00  0.00     0.047 A 
ATOM     15  C   UNL     1      28.040  32.598 117.802  1.00  0.00     0.115 A 
ATOM     16  C   UNL     1      29.309  33.455 119.681  1.00  0.00     0.016 A 
ATOM     17  C   UNL     1      29.120  33.332 118.302  1.00  0.00     0.047 A 
BRANCH  15  18
ATOM     18  O   UNL     1      27.865  32.483 116.425  1.00  0.00    -0.508 OA
ATOM     19  H   UNL     1      28.454  32.985 115.772  1.00  0.00     0.293 HD
ENDBRANCH  15  18
ENDBRANCH   1  12
BRANCH   2  20
ATOM     20  O   UNL     1      30.273  31.222 122.121  1.00  0.00    -0.502 OA
ATOM     21  H   UNL     1      29.854  30.423 121.660  1.00  0.00     0.293 HD
ENDBRANCH   2  20
BRANCH   6  22
ATOM     22  O   UNL     1      29.865  33.183 127.057  1.00  0.00    -0.507 OA
ATOM     23  H   UNL     1      30.861  33.248 126.913  1.00  0.00     0.293 HD
ENDBRANCH   6  22
BRANCH   8  24
ATOM     24  O   UNL     1      26.130  36.124 126.512  1.00  0.00    -0.508 OA
ATOM     25  H   UNL     1      25.494  36.676 125.947  1.00  0.00     0.293 HD
ENDBRANCH   8  24
TORSDOF 5
ENDMDL
MODEL 6
REMARK VINA RESULT:    -5.809      2.119      2.716
REMARK INTER + INTRA:          -7.023
REMARK INTER:                  -6.972
REMARK INTRA:                  -0.051
REMARK UNBOUND:                -0.196
REMARK SMILES O=c1c(O)c(-c2ccc(O)cc2)oc2cc(O)cc(O)c12
REMARK SMILES IDX 5 1 3 2 2 3 1 4 21 5 19 6 18 7 16 8 15 9 14 10 13 11 6 12
REMARK SMILES IDX 7 13 8 14 9 15 12 16 11 17 10 18 4 20 20 22 17 24
REMARK H PARENT 10 19 4 21 20 23 17 25
REMARK Flexibility Score: inf
ROOT
ATOM      1  C   UNL     1      28.703  33.241 124.073  1.00  0.00     0.180 A 
ATOM      2  C   UNL     1      29.951  33.056 123.455  1.00  0.00     0.208 A 
ATOM      3  C   UNL     1      30.000  32.863 122.065  1.00  0.00     0.238 A 
ATOM      4  O   UNL     1      31.125  32.754 121.509  1.00  0.00    -0.285 OA
ATOM      5  C   UNL     1      28.800  32.842 121.314  1.00  0.00     0.111 A 
ATOM      6  C   UNL     1      28.729  32.613 119.907  1.00  0.00     0.134 A 
ATOM      7  C   UNL     1      27.500  32.743 119.247  1.00  0.00     0.093 A 
ATOM      8  C   UNL     1      26.332  33.026 119.953  1.00  0.00     0.123 A 
ATOM      9  C   UNL     1      26.380  33.192 121.337  1.00  0.00     0.094 A 
ATOM     10  C   UNL     1      27.597  33.105 122.018  1.00  0.00     0.146 A 
ATOM     11  O   UNL     1      27.601  33.280 123.334  1.00  0.00    -0.452 OA
ENDROOT
BRANCH   1  12
ATOM     12  C   UNL     1      28.568  33.424 125.538  1.00  0.00     0.021 A 
ATOM     13  C   UNL     1      27.840  34.518 126.033  1.00  0.00     0.016 A 
ATOM     14  C   UNL     1      27.682  34.699 127.411  1.00  0.00     0.047 A 
ATOM     15  C   UNL     1      28.237  33.779 128.309  1.00  0.00     0.115 A 
ATOM     16  C   UNL     1      29.105  32.494 126.446  1.00  0.00     0.016 A 
ATOM     17  C   UNL     1      28.945  32.676 127.822  1.00  0.00     0.047 A 
BRANCH  15  18
ATOM     18  O   UNL     1      28.085  33.948 129.684  1.00  0.00    -0.508 OA
ATOM     19  H   UNL     1      28.519  33.316 130.346  1.00  0.00     0.293 HD
ENDBRANCH  15  18
ENDBRANCH   1  12
BRANCH   2  20
ATOM     20  O   UNL     1      31.125  33.105 124.212  1.00  0.00    -0.502 OA
ATOM     21  H   UNL     1      31.992  32.685 123.899  1.00  0.00     0.293 HD
ENDBRANCH   2  20
BRANCH   6  22
ATOM     22  O   UNL     1      29.821  32.234 119.121  1.00  0.00    -0.507 OA
ATOM     23  H   UNL     1      29.820  31.464 118.469  1.00  0.00     0.293 HD
ENDBRANCH   6  22
BRANCH   8  24
ATOM     24  O   UNL     1      25.124  33.132 119.266  1.00  0.00    -0.508 OA
ATOM     25  H   UNL     1      24.235  33.129 119.753  1.00  0.00     0.293 HD
ENDBRANCH   8  24
TORSDOF 5
ENDMDL
MODEL 7
REMARK VINA RESULT:    -5.743      2.320      4.008
REMARK INTER + INTRA:          -6.945
REMARK INTER:                  -6.657
REMARK INTRA:                  -0.288
REMARK UNBOUND:                -0.196
REMARK SMILES O=c1c(O)c(-c2ccc(O)cc2)oc2cc(O)cc(O)c12
REMARK SMILES IDX 5 1 3 2 2 3 1 4 21 5 19 6 18 7 16 8 15 9 14 10 13 11 6 12
REMARK SMILES IDX 7 13 8 14 9 15 12 16 11 17 10 18 4 20 20 22 17 24
REMARK H PARENT 10 19 4 21 20 23 17 25
REMARK Flexibility Score: inf
ROOT
ATOM      1  C   UNL     1      27.505  33.681 123.220  1.00  0.00     0.180 A 
ATOM      2  C   UNL     1      26.150  33.886 122.913  1.00  0.00     0.208 A 
ATOM      3  C   UNL     1      25.719  33.723 121.586  1.00  0.00     0.238 A 
ATOM      4  O   UNL     1      24.494  33.854 121.328  1.00  0.00    -0.285 OA
ATOM      5  C   UNL     1      26.653  33.373 120.581  1.00  0.00     0.111 A 
ATOM      6  C   UNL     1      26.335  33.222 119.198  1.00  0.00     0.134 A 
ATOM      7  C   UNL     1      27.311  32.746 118.313  1.00  0.00     0.093 A 
ATOM      8  C   UNL     1      28.609  32.480 118.748  1.00  0.00     0.123 A 
ATOM      9  C   UNL     1      28.947  32.682 120.087  1.00  0.00     0.094 A 
ATOM     10  C   UNL     1      27.984  33.121 121.000  1.00  0.00     0.146 A 
ATOM     11  O   UNL     1      28.344  33.290 122.267  1.00  0.00    -0.452 OA
ENDROOT
BRANCH   1  12
ATOM     12  C   UNL     1      28.040  33.859 124.590  1.00  0.00     0.021 A 
ATOM     13  C   UNL     1      28.253  32.731 125.400  1.00  0.00     0.016 A 
ATOM     14  C   UNL     1      28.777  32.874 126.689  1.00  0.00     0.047 A 
ATOM     15  C   UNL     1      29.107  34.145 127.178  1.00  0.00     0.115 A 
ATOM     16  C   UNL     1      28.392  35.129 125.081  1.00  0.00     0.016 A 
ATOM     17  C   UNL     1      28.916  35.269 126.369  1.00  0.00     0.047 A 
BRANCH  15  18
ATOM     18  O   UNL     1      29.630  34.299 128.460  1.00  0.00    -0.508 OA
ATOM     19  H   UNL     1      30.562  34.663 128.611  1.00  0.00     0.293 HD
ENDBRANCH  15  18
ENDBRANCH   1  12
BRANCH   2  20
ATOM     20  O   UNL     1      25.241  34.208 123.925  1.00  0.00    -0.502 OA
ATOM     21  H   UNL     1      25.526  34.647 124.793  1.00  0.00     0.293 HD
ENDBRANCH   2  20
BRANCH   6  22
ATOM     22  O   UNL     1      25.095  33.547 118.641  1.00  0.00    -0.507 OA
ATOM     23  H   UNL     1      24.272  33.787 119.173  1.00  0.00     0.293 HD
ENDBRANCH   6  22
BRANCH   8  24
ATOM     24  O   UNL     1      29.558  32.023 117.837  1.00  0.00    -0.508 OA
ATOM     25  H   UNL     1      29.870  31.058 117.836  1.00  0.00     0.293 HD
ENDBRANCH   8  24
TORSDOF 5
ENDMDL
MODEL 8
REMARK VINA RESULT:    -5.704      2.972      7.502
REMARK INTER + INTRA:          -6.900
REMARK INTER:                  -6.633
REMARK INTRA:                  -0.268
REMARK UNBOUND:                -0.196
REMARK SMILES O=c1c(O)c(-c2ccc(O)cc2)oc2cc(O)cc(O)c12
REMARK SMILES IDX 5 1 3 2 2 3 1 4 21 5 19 6 18 7 16 8 15 9 14 10 13 11 6 12
REMARK SMILES IDX 7 13 8 14 9 15 12 16 11 17 10 18 4 20 20 22 17 24
REMARK H PARENT 10 19 4 21 20 23 17 25
REMARK Flexibility Score: inf
ROOT
ATOM      1  C   UNL     1      27.588  33.192 120.825  1.00  0.00     0.180 A 
ATOM      2  C   UNL     1      26.856  34.388 120.896  1.00  0.00     0.208 A 
ATOM      3  C   UNL     1      26.576  34.942 122.156  1.00  0.00     0.238 A 
ATOM      4  O   UNL     1      25.968  36.043 122.211  1.00  0.00    -0.285 OA
ATOM      5  C   UNL     1      27.019  34.284 123.329  1.00  0.00     0.111 A 
ATOM      6  C   UNL     1      26.758  34.733 124.658  1.00  0.00     0.134 A 
ATOM      7  C   UNL     1      27.355  34.074 125.740  1.00  0.00     0.093 A 
ATOM      8  C   UNL     1      28.149  32.945 125.545  1.00  0.00     0.123 A 
ATOM      9  C   UNL     1      28.362  32.461 124.253  1.00  0.00     0.094 A 
ATOM     10  C   UNL     1      27.809  33.119 123.152  1.00  0.00     0.146 A 
ATOM     11  O   UNL     1      28.045  32.632 121.939  1.00  0.00    -0.452 OA
ENDROOT
BRANCH   1  12
ATOM     12  C   UNL     1      27.899  32.533 119.535  1.00  0.00     0.021 A 
ATOM     13  C   UNL     1      29.196  32.629 119.006  1.00  0.00     0.016 A 
ATOM     14  C   UNL     1      29.518  31.997 117.800  1.00  0.00     0.047 A 
ATOM     15  C   UNL     1      28.550  31.250 117.117  1.00  0.00     0.115 A 
ATOM     16  C   UNL     1      26.938  31.765 118.853  1.00  0.00     0.016 A 
ATOM     17  C   UNL     1      27.262  31.133 117.649  1.00  0.00     0.047 A 
BRANCH  15  18
ATOM     18  O   UNL     1      28.859  30.616 115.916  1.00  0.00    -0.508 OA
ATOM     19  H   UNL     1      28.760  29.614 115.805  1.00  0.00     0.293 HD
ENDBRANCH  15  18
ENDBRANCH   1  12
BRANCH   2  20
ATOM     20  O   UNL     1      26.448  35.034 119.725  1.00  0.00    -0.502 OA
ATOM     21  H   UNL     1      26.116  34.528 118.913  1.00  0.00     0.293 HD
ENDBRANCH   2  20
BRANCH   6  22
ATOM     22  O   UNL     1      25.905  35.796 124.969  1.00  0.00    -0.507 OA
ATOM     23  H   UNL     1      25.567  36.008 125.896  1.00  0.00     0.293 HD
ENDBRANCH   6  22
BRANCH   8  24
ATOM     24  O   UNL     1      28.714  32.305 126.646  1.00  0.00    -0.508 OA
ATOM     25  H   UNL     1      28.650  32.698 127.578  1.00  0.00     0.293 HD
ENDBRANCH   8  24
TORSDOF 5
ENDMDL
MODEL 9
REMARK VINA RESULT:    -5.629      2.531      7.163
REMARK INTER + INTRA:          -6.811
REMARK INTER:                  -6.605
REMARK INTRA:                  -0.206
REMARK UNBOUND:                -0.196
REMARK SMILES O=c1c(O)c(-c2ccc(O)cc2)oc2cc(O)cc(O)c12
REMARK SMILES IDX 5 1 3 2 2 3 1 4 21 5 19 6 18 7 16 8 15 9 14 10 13 11 6 12
REMARK SMILES IDX 7 13 8 14 9 15 12 16 11 17 10 18 4 20 20 22 17 24
REMARK H PARENT 10 19 4 21 20 23 17 25
REMARK Flexibility Score: inf
ROOT
ATOM      1  C   UNL     1      28.053  33.717 122.118  1.00  0.00     0.180 A 
ATOM      2  C   UNL     1      27.001  34.554 122.525  1.00  0.00     0.208 A 
ATOM      3  C   UNL     1      26.937  34.965 123.866  1.00  0.00     0.238 A 
ATOM      4  O   UNL     1      26.023  35.759 124.212  1.00  0.00    -0.285 OA
ATOM      5  C   UNL     1      27.917  34.521 124.787  1.00  0.00     0.111 A 
ATOM      6  C   UNL     1      27.927  34.843 126.177  1.00  0.00     0.134 A 
ATOM      7  C   UNL     1      29.017  34.456 126.967  1.00  0.00     0.093 A 
ATOM      8  C   UNL     1      30.062  33.704 126.433  1.00  0.00     0.123 A 
ATOM      9  C   UNL     1      30.033  33.333 125.088  1.00  0.00     0.094 A 
ATOM     10  C   UNL     1      28.977  33.735 124.266  1.00  0.00     0.146 A 
ATOM     11  O   UNL     1      28.993  33.370 122.990  1.00  0.00    -0.452 OA
ENDROOT
BRANCH   1  12
ATOM     12  C   UNL     1      28.173  33.220 120.727  1.00  0.00     0.021 A 
ATOM     13  C   UNL     1      29.245  33.652 119.930  1.00  0.00     0.016 A 
ATOM     14  C   UNL     1      29.390  33.180 118.621  1.00  0.00     0.047 A 
ATOM     15  C   UNL     1      28.473  32.258 118.101  1.00  0.00     0.115 A 
ATOM     16  C   UNL     1      27.268  32.280 120.204  1.00  0.00     0.016 A 
ATOM     17  C   UNL     1      27.415  31.808 118.896  1.00  0.00     0.047 A 
BRANCH  15  18
ATOM     18  O   UNL     1      28.608  31.780 116.799  1.00  0.00    -0.508 OA
ATOM     19  H   UNL     1      28.416  30.813 116.568  1.00  0.00     0.293 HD
ENDBRANCH  15  18
ENDBRANCH   1  12
BRANCH   2  20
ATOM     20  O   UNL     1      26.056  34.999 121.595  1.00  0.00    -0.502 OA
ATOM     21  H   UNL     1      26.299  35.608 120.823  1.00  0.00     0.293 HD
ENDBRANCH   2  20
BRANCH   6  22
ATOM     22  O   UNL     1      26.888  35.511 126.832  1.00  0.00    -0.507 OA
ATOM     23  H   UNL     1      26.662  36.485 126.704  1.00  0.00     0.293 HD
ENDBRANCH   6  22
BRANCH   8  24
ATOM     24  O   UNL     1      31.123  33.323 127.252  1.00  0.00    -0.508 OA
ATOM     25  H   UNL     1      31.083  32.480 127.813  1.00  0.00     0.293 HD
ENDBRANCH   8  24
TORSDOF 5
ENDMDL
