MODEL 1
REMARK VINA RESULT:    -4.312      0.000      0.000
REMARK INTER + INTRA:         -12.764
REMARK INTER:                  -9.354
REMARK INTRA:                  -3.410
REMARK UNBOUND:                -3.410
REMARK SMILES CCCCCCCCCCCCCCCCCCCCCC(=O)[O-]
REMARK SMILES IDX 12 1 11 2 10 3 9 4 8 5 7 6 6 7 5 8 4 9 3 10 2 11 1 12 13 13
REMARK SMILES IDX 14 14 15 15 16 16 17 17 18 18 19 19 20 20 21 21 22 22 23 23
REMARK SMILES IDX 24 24
REMARK H PARENT
REMARK Flexibility Score: inf
ROOT
ATOM      1  C   UNL     1     -11.311   1.725  19.571  1.00  0.00     0.000 C 
ENDROOT
BRANCH   1   2
ATOM      2  C   UNL     1      -9.857   1.562  20.050  1.00  0.00     0.000 C 
BRANCH   2   3
ATOM      3  C   UNL     1      -9.067   0.556  19.186  1.00  0.00     0.000 C 
BRANCH   3   4
ATOM      4  C   UNL     1      -8.675  -0.731  19.930  1.00  0.00    -0.000 C 
BRANCH   4   5
ATOM      5  C   UNL     1      -9.375  -0.870  21.291  1.00  0.00    -0.000 C 
BRANCH   5   6
ATOM      6  C   UNL     1      -8.382  -0.970  22.461  1.00  0.00    -0.000 C 
BRANCH   6   7
ATOM      7  C   UNL     1      -8.886  -0.258  23.727  1.00  0.00    -0.000 C 
BRANCH   7   8
ATOM      8  C   UNL     1     -10.330   0.228  23.550  1.00  0.00    -0.000 C 
BRANCH   8   9
ATOM      9  C   UNL     1     -10.450   1.720  23.895  1.00  0.00    -0.000 C 
BRANCH   9  10
ATOM     10  C   UNL     1      -9.240   2.544  23.422  1.00  0.00    -0.000 C 
BRANCH  10  11
ATOM     11  C   UNL     1      -9.611   3.961  22.937  1.00  0.00    -0.003 C 
ATOM     12  C   UNL     1     -11.003   4.389  23.401  1.00  0.00     0.004 C 
ENDBRANCH  10  11
ENDBRANCH   9  10
ENDBRANCH   8   9
ENDBRANCH   7   8
ENDBRANCH   6   7
ENDBRANCH   5   6
ENDBRANCH   4   5
ENDBRANCH   3   4
ENDBRANCH   2   3
ENDBRANCH   1   2
BRANCH   1  13
ATOM     13  C   UNL     1     -12.237   2.286  20.662  1.00  0.00     0.000 C 
BRANCH  13  14
ATOM     14  C   UNL     1     -12.958   3.571  20.227  1.00  0.00     0.000 C 
BRANCH  14  15
ATOM     15  C   UNL     1     -12.832   3.784  18.714  1.00  0.00     0.000 C 
BRANCH  15  16
ATOM     16  C   UNL     1     -12.287   5.184  18.398  1.00  0.00     0.000 C 
BRANCH  16  17
ATOM     17  C   UNL     1     -11.301   5.187  17.217  1.00  0.00     0.000 C 
BRANCH  17  18
ATOM     18  C   UNL     1     -11.421   3.932  16.340  1.00  0.00     0.000 C 
BRANCH  18  19
ATOM     19  C   UNL     1     -10.044   3.303  16.078  1.00  0.00     0.000 C 
BRANCH  19  20
ATOM     20  C   UNL     1     -10.107   1.773  15.935  1.00  0.00     0.006 C 
BRANCH  20  21
ATOM     21  C   UNL     1     -11.500   1.272  15.524  1.00  0.00     0.053 C 
BRANCH  21  22
ATOM     22  C   UNL     1     -11.414   0.395  14.314  1.00  0.00     0.041 C 
ATOM     23  O   UNL     1     -10.303  -0.078  13.951  1.00  0.00    -0.550 OA
ATOM     24  O   UNL     1     -12.551   0.134  13.561  1.00  0.00    -0.550 OA
ENDBRANCH  21  22
ENDBRANCH  20  21
ENDBRANCH  19  20
ENDBRANCH  18  19
ENDBRANCH  17  18
ENDBRANCH  16  17
ENDBRANCH  15  16
ENDBRANCH  14  15
ENDBRANCH  13  14
ENDBRANCH   1  13
TORSDOF 20
ENDMDL
MODEL 2
REMARK VINA RESULT:    -4.196      3.014      6.787
REMARK INTER + INTRA:         -12.511
REMARK INTER:                  -9.377
REMARK INTRA:                  -3.135
REMARK UNBOUND:                -3.410
REMARK SMILES CCCCCCCCCCCCCCCCCCCCCC(=O)[O-]
REMARK SMILES IDX 12 1 11 2 10 3 9 4 8 5 7 6 6 7 5 8 4 9 3 10 2 11 1 12 13 13
REMARK SMILES IDX 14 14 15 15 16 16 17 17 18 18 19 19 20 20 21 21 22 22 23 23
REMARK SMILES IDX 24 24
REMARK H PARENT
REMARK Flexibility Score: inf
ROOT
ATOM      1  C   UNL     1     -11.892   0.632  22.767  1.00  0.00     0.000 C 
ENDROOT
BRANCH   1   2
ATOM      2  C   UNL     1     -12.584   2.005  22.699  1.00  0.00     0.000 C 
BRANCH   2   3
ATOM      3  C   UNL     1     -12.652   2.553  21.258  1.00  0.00     0.000 C 
BRANCH   3   4
ATOM      4  C   UNL     1     -13.706   3.655  21.060  1.00  0.00    -0.000 C 
BRANCH   4   5
ATOM      5  C   UNL     1     -13.844   4.092  19.593  1.00  0.00    -0.000 C 
BRANCH   5   6
ATOM      6  C   UNL     1     -12.576   3.817  18.770  1.00  0.00    -0.000 C 
BRANCH   6   7
ATOM      7  C   UNL     1     -12.884   3.495  17.298  1.00  0.00    -0.000 C 
BRANCH   7   8
ATOM      8  C   UNL     1     -11.952   4.269  16.356  1.00  0.00    -0.000 C 
BRANCH   8   9
ATOM      9  C   UNL     1     -10.735   3.415  15.968  1.00  0.00    -0.000 C 
BRANCH   9  10
ATOM     10  C   UNL     1     -11.061   1.914  15.875  1.00  0.00    -0.000 C 
BRANCH  10  11
ATOM     11  C   UNL     1      -9.845   1.041  15.504  1.00  0.00    -0.003 C 
ATOM     12  C   UNL     1      -9.846   0.639  14.028  1.00  0.00     0.004 C 
ENDBRANCH  10  11
ENDBRANCH   9  10
ENDBRANCH   8   9
ENDBRANCH   7   8
ENDBRANCH   6   7
ENDBRANCH   5   6
ENDBRANCH   4   5
ENDBRANCH   3   4
ENDBRANCH   2   3
ENDBRANCH   1   2
BRANCH   1  13
ATOM     13  C   UNL     1     -10.472   0.711  23.352  1.00  0.00     0.000 C 
BRANCH  13  14
ATOM     14  C   UNL     1      -9.450  -0.102  22.543  1.00  0.00     0.000 C 
BRANCH  14  15
ATOM     15  C   UNL     1     -10.027  -0.509  21.182  1.00  0.00     0.000 C 
BRANCH  15  16
ATOM     16  C   UNL     1      -8.909  -0.727  20.152  1.00  0.00     0.000 C 
BRANCH  16  17
ATOM     17  C   UNL     1      -8.859   0.377  19.083  1.00  0.00     0.000 C 
BRANCH  17  18
ATOM     18  C   UNL     1      -9.904   1.479  19.318  1.00  0.00     0.000 C 
BRANCH  18  19
ATOM     19  C   UNL     1      -9.231   2.822  19.639  1.00  0.00     0.000 C 
BRANCH  19  20
ATOM     20  C   UNL     1      -8.138   3.196  18.623  1.00  0.00     0.006 C 
BRANCH  20  21
ATOM     21  C   UNL     1      -8.134   4.693  18.280  1.00  0.00     0.053 C 
BRANCH  21  22
ATOM     22  C   UNL     1      -6.889   5.351  18.786  1.00  0.00     0.041 C 
ATOM     23  O   UNL     1      -6.513   6.454  18.303  1.00  0.00    -0.550 OA
ATOM     24  O   UNL     1      -6.117   4.728  19.759  1.00  0.00    -0.550 OA
ENDBRANCH  21  22
ENDBRANCH  20  21
ENDBRANCH  19  20
ENDBRANCH  18  19
ENDBRANCH  17  18
ENDBRANCH  16  17
ENDBRANCH  15  16
ENDBRANCH  14  15
ENDBRANCH  13  14
ENDBRANCH   1  13
TORSDOF 20
ENDMDL
MODEL 3
REMARK VINA RESULT:    -4.185      1.325      2.099
REMARK INTER + INTRA:         -12.488
REMARK INTER:                  -8.991
REMARK INTRA:                  -3.496
REMARK UNBOUND:                -3.410
REMARK SMILES CCCCCCCCCCCCCCCCCCCCCC(=O)[O-]
REMARK SMILES IDX 12 1 11 2 10 3 9 4 8 5 7 6 6 7 5 8 4 9 3 10 2 11 1 12 13 13
REMARK SMILES IDX 14 14 15 15 16 16 17 17 18 18 19 19 20 20 21 21 22 22 23 23
REMARK SMILES IDX 24 24
REMARK H PARENT
REMARK Flexibility Score: inf
ROOT
ATOM      1  C   UNL     1      -8.928   2.520  18.606  1.00  0.00     0.000 C 
ENDROOT
BRANCH   1   2
ATOM      2  C   UNL     1      -9.137   1.119  19.206  1.00  0.00     0.000 C 
BRANCH   2   3
ATOM      3  C   UNL     1     -10.250   1.102  20.275  1.00  0.00     0.000 C 
BRANCH   3   4
ATOM      4  C   UNL     1     -10.374  -0.236  21.024  1.00  0.00    -0.000 C 
BRANCH   4   5
ATOM      5  C   UNL     1      -9.019  -0.930  21.235  1.00  0.00    -0.000 C 
BRANCH   5   6
ATOM      6  C   UNL     1      -8.501  -0.794  22.676  1.00  0.00    -0.000 C 
BRANCH   6   7
ATOM      7  C   UNL     1      -9.461   0.000  23.577  1.00  0.00    -0.000 C 
BRANCH   7   8
ATOM      8  C   UNL     1      -8.866   1.363  23.955  1.00  0.00    -0.000 C 
BRANCH   8   9
ATOM      9  C   UNL     1      -9.884   2.489  23.718  1.00  0.00    -0.000 C 
BRANCH   9  10
ATOM     10  C   UNL     1     -11.342   2.004  23.796  1.00  0.00    -0.000 C 
BRANCH  10  11
ATOM     11  C   UNL     1     -12.348   2.968  23.133  1.00  0.00    -0.003 C 
ATOM     12  C   UNL     1     -13.125   2.306  21.995  1.00  0.00     0.004 C 
ENDBRANCH  10  11
ENDBRANCH   9  10
ENDBRANCH   8   9
ENDBRANCH   7   8
ENDBRANCH   6   7
ENDBRANCH   5   6
ENDBRANCH   4   5
ENDBRANCH   3   4
ENDBRANCH   2   3
ENDBRANCH   1   2
BRANCH   1  13
ATOM     13  C   UNL     1      -8.716   3.601  19.679  1.00  0.00     0.000 C 
BRANCH  13  14
ATOM     14  C   UNL     1      -9.549   4.865  19.422  1.00  0.00     0.000 C 
BRANCH  14  15
ATOM     15  C   UNL     1     -10.956   4.725  20.016  1.00  0.00     0.000 C 
BRANCH  15  16
ATOM     16  C   UNL     1     -12.025   5.194  19.019  1.00  0.00     0.000 C 
BRANCH  16  17
ATOM     17  C   UNL     1     -13.121   4.143  18.781  1.00  0.00     0.000 C 
BRANCH  17  18
ATOM     18  C   UNL     1     -12.583   2.860  18.129  1.00  0.00     0.000 C 
BRANCH  18  19
ATOM     19  C   UNL     1     -12.069   3.135  16.707  1.00  0.00     0.000 C 
BRANCH  19  20
ATOM     20  C   UNL     1     -11.903   1.850  15.878  1.00  0.00     0.006 C 
BRANCH  20  21
ATOM     21  C   UNL     1     -10.452   1.614  15.432  1.00  0.00     0.053 C 
BRANCH  21  22
ATOM     22  C   UNL     1     -10.393   0.609  14.325  1.00  0.00     0.041 C 
ATOM     23  O   UNL     1      -9.286   0.304  13.804  1.00  0.00    -0.550 OA
ATOM     24  O   UNL     1     -11.562   0.040  13.837  1.00  0.00    -0.550 OA
ENDBRANCH  21  22
ENDBRANCH  20  21
ENDBRANCH  19  20
ENDBRANCH  18  19
ENDBRANCH  17  18
ENDBRANCH  16  17
ENDBRANCH  15  16
ENDBRANCH  14  15
ENDBRANCH  13  14
ENDBRANCH   1  13
TORSDOF 20
ENDMDL
MODEL 4
REMARK VINA RESULT:    -4.168      2.365      3.645
REMARK INTER + INTRA:         -12.451
REMARK INTER:                  -9.208
REMARK INTRA:                  -3.243
REMARK UNBOUND:                -3.410
REMARK SMILES CCCCCCCCCCCCCCCCCCCCCC(=O)[O-]
REMARK SMILES IDX 12 1 11 2 10 3 9 4 8 5 7 6 6 7 5 8 4 9 3 10 2 11 1 12 13 13
REMARK SMILES IDX 14 14 15 15 16 16 17 17 18 18 19 19 20 20 21 21 22 22 23 23
REMARK SMILES IDX 24 24
REMARK H PARENT
REMARK Flexibility Score: inf
ROOT
ATOM      1  C   UNL     1     -13.509   2.515  21.753  1.00  0.00     0.000 C 
ENDROOT
BRANCH   1   2
ATOM      2  C   UNL     1     -12.345   2.042  22.642  1.00  0.00     0.000 C 
BRANCH   2   3
ATOM      3  C   UNL     1     -12.174   0.508  22.613  1.00  0.00     0.000 C 
BRANCH   3   4
ATOM      4  C   UNL     1     -11.618  -0.032  21.285  1.00  0.00    -0.000 C 
BRANCH   4   5
ATOM      5  C   UNL     1     -10.158   0.381  21.038  1.00  0.00    -0.000 C 
BRANCH   5   6
ATOM      6  C   UNL     1      -9.995   1.264  19.790  1.00  0.00    -0.000 C 
BRANCH   6   7
ATOM      7  C   UNL     1      -9.258   2.580  20.090  1.00  0.00    -0.000 C 
BRANCH   7   8
ATOM      8  C   UNL     1      -8.969   3.358  18.800  1.00  0.00    -0.000 C 
BRANCH   8   9
ATOM      9  C   UNL     1      -7.457   3.534  18.595  1.00  0.00    -0.000 C 
BRANCH   9  10
ATOM     10  C   UNL     1      -6.908   4.815  19.247  1.00  0.00    -0.000 C 
BRANCH  10  11
ATOM     11  C   UNL     1      -5.372   4.826  19.388  1.00  0.00    -0.003 C 
ATOM     12  C   UNL     1      -4.688   3.924  18.361  1.00  0.00     0.004 C 
ENDBRANCH  10  11
ENDBRANCH   9  10
ENDBRANCH   8   9
ENDBRANCH   7   8
ENDBRANCH   6   7
ENDBRANCH   5   6
ENDBRANCH   4   5
ENDBRANCH   3   4
ENDBRANCH   2   3
ENDBRANCH   1   2
BRANCH   1  13
ATOM     13  C   UNL     1     -13.059   3.493  20.656  1.00  0.00     0.000 C 
BRANCH  13  14
ATOM     14  C   UNL     1     -12.109   4.580  21.181  1.00  0.00     0.000 C 
BRANCH  14  15
ATOM     15  C   UNL     1     -11.598   5.461  20.034  1.00  0.00     0.000 C 
BRANCH  15  16
ATOM     16  C   UNL     1     -12.380   5.191  18.741  1.00  0.00     0.000 C 
BRANCH  16  17
ATOM     17  C   UNL     1     -11.617   5.631  17.480  1.00  0.00     0.000 C 
BRANCH  17  18
ATOM     18  C   UNL     1     -11.531   4.522  16.420  1.00  0.00     0.000 C 
BRANCH  18  19
ATOM     19  C   UNL     1     -12.404   3.318  16.805  1.00  0.00     0.000 C 
BRANCH  19  20
ATOM     20  C   UNL     1     -11.666   1.977  16.651  1.00  0.00     0.006 C 
BRANCH  20  21
ATOM     21  C   UNL     1     -10.573   2.022  15.573  1.00  0.00     0.053 C 
BRANCH  21  22
ATOM     22  C   UNL     1     -10.578   0.767  14.757  1.00  0.00     0.041 C 
ATOM     23  O   UNL     1      -9.519   0.098  14.614  1.00  0.00    -0.550 OA
ATOM     24  O   UNL     1     -11.741   0.357  14.117  1.00  0.00    -0.550 OA
ENDBRANCH  21  22
ENDBRANCH  20  21
ENDBRANCH  19  20
ENDBRANCH  18  19
ENDBRANCH  17  18
ENDBRANCH  16  17
ENDBRANCH  15  16
ENDBRANCH  14  15
ENDBRANCH  13  14
ENDBRANCH   1  13
TORSDOF 20
ENDMDL
MODEL 5
REMARK VINA RESULT:    -4.146      3.129      4.921
REMARK INTER + INTRA:         -12.402
REMARK INTER:                  -9.147
REMARK INTRA:                  -3.256
REMARK UNBOUND:                -3.410
REMARK SMILES CCCCCCCCCCCCCCCCCCCCCC(=O)[O-]
REMARK SMILES IDX 12 1 11 2 10 3 9 4 8 5 7 6 6 7 5 8 4 9 3 10 2 11 1 12 13 13
REMARK SMILES IDX 14 14 15 15 16 16 17 17 18 18 19 19 20 20 21 21 22 22 23 23
REMARK SMILES IDX 24 24
REMARK H PARENT
REMARK Flexibility Score: inf
ROOT
ATOM      1  C   UNL     1     -11.649   1.293  20.180  1.00  0.00     0.000 C 
ENDROOT
BRANCH   1   2
ATOM      2  C   UNL     1     -10.125   1.078  20.204  1.00  0.00     0.000 C 
BRANCH   2   3
ATOM      3  C   UNL     1      -9.406   1.873  19.093  1.00  0.00     0.000 C 
BRANCH   3   4
ATOM      4  C   UNL     1      -9.099   3.332  19.470  1.00  0.00    -0.000 C 
BRANCH   4   5
ATOM      5  C   UNL     1      -7.872   3.893  18.735  1.00  0.00    -0.000 C 
BRANCH   5   6
ATOM      6  C   UNL     1      -8.227   5.043  17.778  1.00  0.00    -0.000 C 
BRANCH   6   7
ATOM      7  C   UNL     1      -7.501   6.351  18.131  1.00  0.00    -0.000 C 
BRANCH   7   8
ATOM      8  C   UNL     1      -6.491   6.734  17.041  1.00  0.00    -0.000 C 
BRANCH   8   9
ATOM      9  C   UNL     1      -5.060   6.737  17.599  1.00  0.00    -0.000 C 
BRANCH   9  10
ATOM     10  C   UNL     1      -4.275   5.462  17.243  1.00  0.00    -0.000 C 
BRANCH  10  11
ATOM     11  C   UNL     1      -4.215   4.435  18.393  1.00  0.00    -0.003 C 
ATOM     12  C   UNL     1      -4.439   5.080  19.761  1.00  0.00     0.004 C 
ENDBRANCH  10  11
ENDBRANCH   9  10
ENDBRANCH   8   9
ENDBRANCH   7   8
ENDBRANCH   6   7
ENDBRANCH   5   6
ENDBRANCH   4   5
ENDBRANCH   3   4
ENDBRANCH   2   3
ENDBRANCH   1   2
BRANCH   1  13
ATOM     13  C   UNL     1     -12.165   2.023  21.431  1.00  0.00     0.000 C 
BRANCH  13  14
ATOM     14  C   UNL     1     -13.233   3.077  21.105  1.00  0.00     0.000 C 
BRANCH  14  15
ATOM     15  C   UNL     1     -12.609   4.294  20.411  1.00  0.00     0.000 C 
BRANCH  15  16
ATOM     16  C   UNL     1     -13.060   4.385  18.946  1.00  0.00     0.000 C 
BRANCH  16  17
ATOM     17  C   UNL     1     -12.004   5.034  18.036  1.00  0.00     0.000 C 
BRANCH  17  18
ATOM     18  C   UNL     1     -11.666   4.173  16.809  1.00  0.00     0.000 C 
BRANCH  18  19
ATOM     19  C   UNL     1     -12.670   3.022  16.646  1.00  0.00     0.000 C 
BRANCH  19  20
ATOM     20  C   UNL     1     -11.988   1.681  16.326  1.00  0.00     0.006 C 
BRANCH  20  21
ATOM     21  C   UNL     1     -10.647   1.855  15.600  1.00  0.00     0.053 C 
BRANCH  21  22
ATOM     22  C   UNL     1     -10.504   0.853  14.497  1.00  0.00     0.041 C 
ATOM     23  O   UNL     1      -9.371   0.613  13.999  1.00  0.00    -0.550 OA
ATOM     24  O   UNL     1     -11.627   0.213  13.988  1.00  0.00    -0.550 OA
ENDBRANCH  21  22
ENDBRANCH  20  21
ENDBRANCH  19  20
ENDBRANCH  18  19
ENDBRANCH  17  18
ENDBRANCH  16  17
ENDBRANCH  15  16
ENDBRANCH  14  15
ENDBRANCH  13  14
ENDBRANCH   1  13
TORSDOF 20
ENDMDL
MODEL 6
REMARK VINA RESULT:    -4.131      1.466      2.581
REMARK INTER + INTRA:         -12.371
REMARK INTER:                  -8.715
REMARK INTRA:                  -3.657
REMARK UNBOUND:                -3.410
REMARK SMILES CCCCCCCCCCCCCCCCCCCCCC(=O)[O-]
REMARK SMILES IDX 12 1 11 2 10 3 9 4 8 5 7 6 6 7 5 8 4 9 3 10 2 11 1 12 13 13
REMARK SMILES IDX 14 14 15 15 16 16 17 17 18 18 19 19 20 20 21 21 22 22 23 23
REMARK SMILES IDX 24 24
REMARK H PARENT
REMARK Flexibility Score: inf
ROOT
ATOM      1  C   UNL     1      -9.431   1.374  19.247  1.00  0.00     0.000 C 
ENDROOT
BRANCH   1   2
ATOM      2  C   UNL     1      -8.718   0.010  19.212  1.00  0.00     0.000 C 
BRANCH   2   3
ATOM      3  C   UNL     1      -9.045  -0.850  20.451  1.00  0.00     0.000 C 
BRANCH   3   4
ATOM      4  C   UNL     1     -10.173  -0.279  21.327  1.00  0.00    -0.000 C 
BRANCH   4   5
ATOM      5  C   UNL     1      -9.732  -0.027  22.778  1.00  0.00    -0.000 C 
BRANCH   5   6
ATOM      6  C   UNL     1     -10.836   0.619  23.630  1.00  0.00    -0.000 C 
BRANCH   6   7
ATOM      7  C   UNL     1     -12.233   0.456  23.009  1.00  0.00    -0.000 C 
BRANCH   7   8
ATOM      8  C   UNL     1     -13.076   1.723  23.202  1.00  0.00    -0.000 C 
BRANCH   8   9
ATOM      9  C   UNL     1     -13.396   2.378  21.850  1.00  0.00    -0.000 C 
BRANCH   9  10
ATOM     10  C   UNL     1     -12.140   2.875  21.112  1.00  0.00    -0.000 C 
BRANCH  10  11
ATOM     11  C   UNL     1     -11.558   4.179  21.694  1.00  0.00    -0.003 C 
ATOM     12  C   UNL     1     -10.188   3.968  22.338  1.00  0.00     0.004 C 
ENDBRANCH  10  11
ENDBRANCH   9  10
ENDBRANCH   8   9
ENDBRANCH   7   8
ENDBRANCH   6   7
ENDBRANCH   5   6
ENDBRANCH   4   5
ENDBRANCH   3   4
ENDBRANCH   2   3
ENDBRANCH   1   2
BRANCH   1  13
ATOM     13  C   UNL     1      -8.601   2.495  18.599  1.00  0.00     0.000 C 
BRANCH  13  14
ATOM     14  C   UNL     1      -9.166   3.894  18.886  1.00  0.00     0.000 C 
BRANCH  14  15
ATOM     15  C   UNL     1      -8.979   4.818  17.676  1.00  0.00     0.000 C 
BRANCH  15  16
ATOM     16  C   UNL     1     -10.331   5.177  17.043  1.00  0.00     0.000 C 
BRANCH  16  17
ATOM     17  C   UNL     1     -11.527   4.765  17.918  1.00  0.00     0.000 C 
BRANCH  17  18
ATOM     18  C   UNL     1     -12.542   3.892  17.165  1.00  0.00     0.000 C 
BRANCH  18  19
ATOM     19  C   UNL     1     -12.278   2.398  17.409  1.00  0.00     0.000 C 
BRANCH  19  20
ATOM     20  C   UNL     1     -12.164   1.594  16.103  1.00  0.00     0.006 C 
BRANCH  20  21
ATOM     21  C   UNL     1     -10.777   1.710  15.453  1.00  0.00     0.053 C 
BRANCH  21  22
ATOM     22  C   UNL     1     -10.584   0.647  14.417  1.00  0.00     0.041 C 
ATOM     23  O   UNL     1      -9.433   0.190  14.184  1.00  0.00    -0.550 OA
ATOM     24  O   UNL     1     -11.668   0.191  13.677  1.00  0.00    -0.550 OA
ENDBRANCH  21  22
ENDBRANCH  20  21
ENDBRANCH  19  20
ENDBRANCH  18  19
ENDBRANCH  17  18
ENDBRANCH  16  17
ENDBRANCH  15  16
ENDBRANCH  14  15
ENDBRANCH  13  14
ENDBRANCH   1  13
TORSDOF 20
ENDMDL
MODEL 7
REMARK VINA RESULT:    -4.115      2.902      4.958
REMARK INTER + INTRA:         -12.336
REMARK INTER:                  -9.016
REMARK INTRA:                  -3.320
REMARK UNBOUND:                -3.410
REMARK SMILES CCCCCCCCCCCCCCCCCCCCCC(=O)[O-]
REMARK SMILES IDX 12 1 11 2 10 3 9 4 8 5 7 6 6 7 5 8 4 9 3 10 2 11 1 12 13 13
REMARK SMILES IDX 14 14 15 15 16 16 17 17 18 18 19 19 20 20 21 21 22 22 23 23
REMARK SMILES IDX 24 24
REMARK H PARENT
REMARK Flexibility Score: inf
ROOT
ATOM      1  C   UNL     1     -12.543   3.806  18.508  1.00  0.00     0.000 C 
ENDROOT
BRANCH   1   2
ATOM      2  C   UNL     1     -11.739   5.096  18.271  1.00  0.00     0.000 C 
BRANCH   2   3
ATOM      3  C   UNL     1     -11.579   5.929  19.561  1.00  0.00     0.000 C 
BRANCH   3   4
ATOM      4  C   UNL     1     -10.123   6.068  20.037  1.00  0.00    -0.000 C 
BRANCH   4   5
ATOM      5  C   UNL     1      -9.937   5.676  21.511  1.00  0.00    -0.000 C 
BRANCH   5   6
ATOM      6  C   UNL     1      -8.547   5.086  21.797  1.00  0.00    -0.000 C 
BRANCH   6   7
ATOM      7  C   UNL     1      -7.608   5.169  20.582  1.00  0.00    -0.000 C 
BRANCH   7   8
ATOM      8  C   UNL     1      -6.369   6.017  20.897  1.00  0.00    -0.000 C 
BRANCH   8   9
ATOM      9  C   UNL     1      -5.118   5.426  20.230  1.00  0.00    -0.000 C 
BRANCH   9  10
ATOM     10  C   UNL     1      -5.452   4.450  19.087  1.00  0.00    -0.000 C 
BRANCH  10  11
ATOM     11  C   UNL     1      -4.282   4.226  18.107  1.00  0.00    -0.003 C 
ATOM     12  C   UNL     1      -4.005   5.455  17.241  1.00  0.00     0.004 C 
ENDBRANCH  10  11
ENDBRANCH   9  10
ENDBRANCH   8   9
ENDBRANCH   7   8
ENDBRANCH   6   7
ENDBRANCH   5   6
ENDBRANCH   4   5
ENDBRANCH   3   4
ENDBRANCH   2   3
ENDBRANCH   1   2
BRANCH   1  13
ATOM     13  C   UNL     1     -12.518   3.351  19.976  1.00  0.00     0.000 C 
BRANCH  13  14
ATOM     14  C   UNL     1     -11.870   1.971  20.160  1.00  0.00     0.000 C 
BRANCH  14  15
ATOM     15  C   UNL     1     -10.368   2.103  20.443  1.00  0.00     0.000 C 
BRANCH  15  16
ATOM     16  C   UNL     1      -9.537   1.491  19.306  1.00  0.00     0.000 C 
BRANCH  16  17
ATOM     17  C   UNL     1      -8.632   2.521  18.608  1.00  0.00     0.000 C 
BRANCH  17  18
ATOM     18  C   UNL     1      -9.144   2.915  17.215  1.00  0.00     0.000 C 
BRANCH  18  19
ATOM     19  C   UNL     1      -9.959   1.777  16.581  1.00  0.00     0.000 C 
BRANCH  19  20
ATOM     20  C   UNL     1     -11.077   2.291  15.657  1.00  0.00     0.006 C 
BRANCH  20  21
ATOM     21  C   UNL     1     -12.289   1.348  15.611  1.00  0.00     0.053 C 
BRANCH  21  22
ATOM     22  C   UNL     1     -12.107   0.301  14.557  1.00  0.00     0.041 C 
ATOM     23  O   UNL     1     -11.179   0.406  13.710  1.00  0.00    -0.550 OA
ATOM     24  O   UNL     1     -12.988  -0.770  14.480  1.00  0.00    -0.550 OA
ENDBRANCH  21  22
ENDBRANCH  20  21
ENDBRANCH  19  20
ENDBRANCH  18  19
ENDBRANCH  17  18
ENDBRANCH  16  17
ENDBRANCH  15  16
ENDBRANCH  14  15
ENDBRANCH  13  14
ENDBRANCH   1  13
TORSDOF 20
ENDMDL
MODEL 8
REMARK VINA RESULT:    -4.099      1.455      3.207
REMARK INTER + INTRA:         -12.302
REMARK INTER:                  -8.806
REMARK INTRA:                  -3.496
REMARK UNBOUND:                -3.410
REMARK SMILES CCCCCCCCCCCCCCCCCCCCCC(=O)[O-]
REMARK SMILES IDX 12 1 11 2 10 3 9 4 8 5 7 6 6 7 5 8 4 9 3 10 2 11 1 12 13 13
REMARK SMILES IDX 14 14 15 15 16 16 17 17 18 18 19 19 20 20 21 21 22 22 23 23
REMARK SMILES IDX 24 24
REMARK H PARENT
REMARK Flexibility Score: inf
ROOT
ATOM      1  C   UNL     1      -9.115   3.531  22.719  1.00  0.00     0.000 C 
ENDROOT
BRANCH   1   2
ATOM      2  C   UNL     1     -10.272   3.198  23.678  1.00  0.00     0.000 C 
BRANCH   2   3
ATOM      3  C   UNL     1      -9.927   2.031  24.627  1.00  0.00     0.000 C 
BRANCH   3   4
ATOM      4  C   UNL     1      -8.705   1.208  24.185  1.00  0.00    -0.000 C 
BRANCH   4   5
ATOM      5  C   UNL     1      -9.037  -0.274  23.948  1.00  0.00    -0.000 C 
BRANCH   5   6
ATOM      6  C   UNL     1      -8.354  -0.841  22.693  1.00  0.00    -0.000 C 
BRANCH   6   7
ATOM      7  C   UNL     1      -9.325  -1.002  21.512  1.00  0.00    -0.000 C 
BRANCH   7   8
ATOM      8  C   UNL     1      -9.508   0.324  20.762  1.00  0.00    -0.000 C 
BRANCH   8   9
ATOM      9  C   UNL     1     -10.986   0.742  20.742  1.00  0.00    -0.000 C 
BRANCH   9  10
ATOM     10  C   UNL     1     -11.859  -0.096  21.694  1.00  0.00    -0.000 C 
BRANCH  10  11
ATOM     11  C   UNL     1     -12.741   0.754  22.631  1.00  0.00    -0.003 C 
ATOM     12  C   UNL     1     -13.129   2.095  22.006  1.00  0.00     0.004 C 
ENDBRANCH  10  11
ENDBRANCH   9  10
ENDBRANCH   8   9
ENDBRANCH   7   8
ENDBRANCH   6   7
ENDBRANCH   5   6
ENDBRANCH   4   5
ENDBRANCH   3   4
ENDBRANCH   2   3
ENDBRANCH   1   2
BRANCH   1  13
ATOM     13  C   UNL     1      -9.574   4.327  21.487  1.00  0.00     0.000 C 
BRANCH  13  14
ATOM     14  C   UNL     1      -8.804   3.949  20.214  1.00  0.00     0.000 C 
BRANCH  14  15
ATOM     15  C   UNL     1      -9.763   3.734  19.036  1.00  0.00     0.000 C 
BRANCH  15  16
ATOM     16  C   UNL     1     -10.850   4.818  19.006  1.00  0.00     0.000 C 
BRANCH  16  17
ATOM     17  C   UNL     1     -12.273   4.234  19.002  1.00  0.00     0.000 C 
BRANCH  17  18
ATOM     18  C   UNL     1     -12.365   2.897  18.251  1.00  0.00     0.000 C 
BRANCH  18  19
ATOM     19  C   UNL     1     -12.503   3.119  16.738  1.00  0.00     0.000 C 
BRANCH  19  20
ATOM     20  C   UNL     1     -12.276   1.832  15.926  1.00  0.00     0.006 C 
BRANCH  20  21
ATOM     21  C   UNL     1     -10.787   1.533  15.692  1.00  0.00     0.053 C 
BRANCH  21  22
ATOM     22  C   UNL     1     -10.605   0.642  14.504  1.00  0.00     0.041 C 
ATOM     23  O   UNL     1     -11.575  -0.026  14.056  1.00  0.00    -0.550 OA
ATOM     24  O   UNL     1      -9.352   0.512  13.916  1.00  0.00    -0.550 OA
ENDBRANCH  21  22
ENDBRANCH  20  21
ENDBRANCH  19  20
ENDBRANCH  18  19
ENDBRANCH  17  18
ENDBRANCH  16  17
ENDBRANCH  15  16
ENDBRANCH  14  15
ENDBRANCH  13  14
ENDBRANCH   1  13
TORSDOF 20
ENDMDL
MODEL 9
REMARK VINA RESULT:    -3.986      1.501      2.925
REMARK INTER + INTRA:         -12.057
REMARK INTER:                  -8.973
REMARK INTRA:                  -3.083
REMARK UNBOUND:                -3.410
REMARK SMILES CCCCCCCCCCCCCCCCCCCCCC(=O)[O-]
REMARK SMILES IDX 12 1 11 2 10 3 9 4 8 5 7 6 6 7 5 8 4 9 3 10 2 11 1 12 13 13
REMARK SMILES IDX 14 14 15 15 16 16 17 17 18 18 19 19 20 20 21 21 22 22 23 23
REMARK SMILES IDX 24 24
REMARK H PARENT
REMARK Flexibility Score: inf
ROOT
ATOM      1  C   UNL     1     -10.473  -0.038  21.140  1.00  0.00     0.000 C 
ENDROOT
BRANCH   1   2
ATOM      2  C   UNL     1      -9.162  -0.842  21.090  1.00  0.00     0.000 C 
BRANCH   2   3
ATOM      3  C   UNL     1      -8.484  -0.940  22.474  1.00  0.00     0.000 C 
BRANCH   3   4
ATOM      4  C   UNL     1      -9.009   0.080  23.499  1.00  0.00    -0.000 C 
BRANCH   4   5
ATOM      5  C   UNL     1      -9.314  -0.552  24.866  1.00  0.00    -0.000 C 
BRANCH   5   6
ATOM      6  C   UNL     1     -10.726  -0.215  25.374  1.00  0.00    -0.000 C 
BRANCH   6   7
ATOM      7  C   UNL     1     -11.318   1.029  24.693  1.00  0.00    -0.000 C 
BRANCH   7   8
ATOM      8  C   UNL     1     -12.633   0.696  23.976  1.00  0.00    -0.000 C 
BRANCH   8   9
ATOM      9  C   UNL     1     -13.342   1.977  23.512  1.00  0.00    -0.000 C 
BRANCH   9  10
ATOM     10  C   UNL     1     -12.374   3.153  23.294  1.00  0.00    -0.000 C 
BRANCH  10  11
ATOM     11  C   UNL     1     -12.622   3.919  21.978  1.00  0.00    -0.003 C 
ATOM     12  C   UNL     1     -13.636   3.214  21.076  1.00  0.00     0.004 C 
ENDBRANCH  10  11
ENDBRANCH   9  10
ENDBRANCH   8   9
ENDBRANCH   7   8
ENDBRANCH   6   7
ENDBRANCH   5   6
ENDBRANCH   4   5
ENDBRANCH   3   4
ENDBRANCH   2   3
ENDBRANCH   1   2
BRANCH   1  13
ATOM     13  C   UNL     1     -10.347   1.345  20.481  1.00  0.00     0.000 C 
BRANCH  13  14
ATOM     14  C   UNL     1      -9.530   1.312  19.181  1.00  0.00     0.000 C 
BRANCH  14  15
ATOM     15  C   UNL     1      -8.735   2.612  18.999  1.00  0.00     0.000 C 
BRANCH  15  16
ATOM     16  C   UNL     1      -9.417   3.537  17.981  1.00  0.00     0.000 C 
BRANCH  16  17
ATOM     17  C   UNL     1     -10.401   4.521  18.636  1.00  0.00     0.000 C 
BRANCH  17  18
ATOM     18  C   UNL     1     -11.661   4.752  17.788  1.00  0.00     0.000 C 
BRANCH  18  19
ATOM     19  C   UNL     1     -12.515   3.478  17.702  1.00  0.00     0.000 C 
BRANCH  19  20
ATOM     20  C   UNL     1     -12.479   2.832  16.307  1.00  0.00     0.006 C 
BRANCH  20  21
ATOM     21  C   UNL     1     -12.071   1.352  16.348  1.00  0.00     0.053 C 
BRANCH  21  22
ATOM     22  C   UNL     1     -11.147   1.023  15.218  1.00  0.00     0.041 C 
ATOM     23  O   UNL     1      -9.906   1.207  15.339  1.00  0.00    -0.550 OA
ATOM     24  O   UNL     1     -11.657   0.554  14.014  1.00  0.00    -0.550 OA
ENDBRANCH  21  22
ENDBRANCH  20  21
ENDBRANCH  19  20
ENDBRANCH  18  19
ENDBRANCH  17  18
ENDBRANCH  16  17
ENDBRANCH  15  16
ENDBRANCH  14  15
ENDBRANCH  13  14
ENDBRANCH   1  13
TORSDOF 20
ENDMDL
