MODEL 1
REMARK VINA RESULT:    -7.206      0.000      0.000
REMARK INTER + INTRA:          -8.811
REMARK INTER:                  -8.680
REMARK INTRA:                  -0.130
REMARK UNBOUND:                -0.130
REMARK SMILES O=c1c(O)c(-c2ccc(O)c(O)c2)oc2cc(O)cc(O)c12
REMARK SMILES IDX 5 1 3 2 2 3 1 4 22 5 20 6 19 7 17 8 16 9 15 10 14 11 6 12
REMARK SMILES IDX 7 13 8 14 9 15 13 16 11 17 10 18 12 20 4 22 21 24 18 26
REMARK H PARENT 10 19 12 21 4 23 21 25 18 27
REMARK Flexibility Score: inf
ROOT
ATOM      1  C   UNL     1      31.083 -92.240  37.498  1.00  0.00     0.180 A 
ATOM      2  C   UNL     1      29.839 -92.823  37.202  1.00  0.00     0.208 A 
ATOM      3  C   UNL     1      29.671 -94.203  37.395  1.00  0.00     0.238 A 
ATOM      4  O   UNL     1      28.571 -94.729  37.078  1.00  0.00    -0.285 OA
ATOM      5  C   UNL     1      30.743 -94.980  37.898  1.00  0.00     0.111 A 
ATOM      6  C   UNL     1      30.671 -96.380  38.171  1.00  0.00     0.134 A 
ATOM      7  C   UNL     1      31.831 -97.071  38.541  1.00  0.00     0.093 A 
ATOM      8  C   UNL     1      33.044 -96.405  38.711  1.00  0.00     0.123 A 
ATOM      9  C   UNL     1      33.111 -95.026  38.506  1.00  0.00     0.094 A 
ATOM     10  C   UNL     1      31.980 -94.315  38.100  1.00  0.00     0.146 A 
ATOM     11  O   UNL     1      32.089 -93.006  37.905  1.00  0.00    -0.452 OA
ENDROOT
BRANCH   1  12
ATOM     12  C   UNL     1      31.330 -90.788  37.342  1.00  0.00     0.025 A 
ATOM     13  C   UNL     1      32.264 -90.299  36.411  1.00  0.00     0.016 A 
ATOM     14  C   UNL     1      32.461 -88.924  36.265  1.00  0.00     0.051 A 
ATOM     15  C   UNL     1      31.720 -88.018  37.034  1.00  0.00     0.157 A 
ATOM     16  C   UNL     1      30.574 -89.874  38.095  1.00  0.00     0.062 A 
ATOM     17  C   UNL     1      30.773 -88.493  37.949  1.00  0.00     0.158 A 
BRANCH  15  18
ATOM     18  O   UNL     1      31.916 -86.645  36.892  1.00  0.00    -0.504 OA
ATOM     19  H   UNL     1      31.776 -86.179  36.003  1.00  0.00     0.293 HD
ENDBRANCH  15  18
BRANCH  17  20
ATOM     20  O   UNL     1      30.031 -87.589  38.708  1.00  0.00    -0.504 OA
ATOM     21  H   UNL     1      30.052 -87.605  39.721  1.00  0.00     0.293 HD
ENDBRANCH  17  20
ENDBRANCH   1  12
BRANCH   2  22
ATOM     22  O   UNL     1      28.801 -92.042  36.687  1.00  0.00    -0.502 OA
ATOM     23  H   UNL     1      28.619 -91.098  37.008  1.00  0.00     0.293 HD
ENDBRANCH   2  22
BRANCH   6  24
ATOM     24  O   UNL     1      29.489 -97.125  38.119  1.00  0.00    -0.507 OA
ATOM     25  H   UNL     1      29.431 -98.122  38.261  1.00  0.00     0.293 HD
ENDBRANCH   6  24
BRANCH   8  26
ATOM     26  O   UNL     1      34.175 -97.122  39.096  1.00  0.00    -0.508 OA
ATOM     27  H   UNL     1      34.439 -97.212  40.070  1.00  0.00     0.293 HD
ENDBRANCH   8  26
TORSDOF 6
ENDMDL
MODEL 2
REMARK VINA RESULT:    -5.703      9.300     10.791
REMARK INTER + INTRA:          -7.001
REMARK INTER:                  -6.835
REMARK INTRA:                  -0.166
REMARK UNBOUND:                -0.130
REMARK SMILES O=c1c(O)c(-c2ccc(O)c(O)c2)oc2cc(O)cc(O)c12
REMARK SMILES IDX 5 1 3 2 2 3 1 4 22 5 20 6 19 7 17 8 16 9 15 10 14 11 6 12
REMARK SMILES IDX 7 13 8 14 9 15 13 16 11 17 10 18 12 20 4 22 21 24 18 26
REMARK H PARENT 10 19 12 21 4 23 21 25 18 27
REMARK Flexibility Score: inf
ROOT
ATOM      1  C   UNL     1      36.332 -95.268  29.957  1.00  0.00     0.180 A 
ATOM      2  C   UNL     1      37.382 -95.606  29.088  1.00  0.00     0.208 A 
ATOM      3  C   UNL     1      38.694 -95.641  29.586  1.00  0.00     0.238 A 
ATOM      4  O   UNL     1      39.638 -95.893  28.791  1.00  0.00    -0.285 OA
ATOM      5  C   UNL     1      38.937 -95.355  30.952  1.00  0.00     0.111 A 
ATOM      6  C   UNL     1      40.221 -95.400  31.574  1.00  0.00     0.134 A 
ATOM      7  C   UNL     1      40.362 -94.970  32.899  1.00  0.00     0.093 A 
ATOM      8  C   UNL     1      39.258 -94.559  33.644  1.00  0.00     0.123 A 
ATOM      9  C   UNL     1      37.989 -94.567  33.064  1.00  0.00     0.094 A 
ATOM     10  C   UNL     1      37.821 -94.956  31.733  1.00  0.00     0.146 A 
ATOM     11  O   UNL     1      36.599 -94.940  31.216  1.00  0.00    -0.452 OA
ENDROOT
BRANCH   1  12
ATOM     12  C   UNL     1      34.920 -95.233  29.510  1.00  0.00     0.025 A 
ATOM     13  C   UNL     1      34.478 -94.302  28.552  1.00  0.00     0.016 A 
ATOM     14  C   UNL     1      33.147 -94.304  28.128  1.00  0.00     0.051 A 
ATOM     15  C   UNL     1      32.243 -95.243  28.641  1.00  0.00     0.157 A 
ATOM     16  C   UNL     1      34.014 -96.186  30.005  1.00  0.00     0.062 A 
ATOM     17  C   UNL     1      32.677 -96.187  29.579  1.00  0.00     0.158 A 
BRANCH  15  18
ATOM     18  O   UNL     1      30.914 -95.247  28.221  1.00  0.00    -0.504 OA
ATOM     19  H   UNL     1      30.176 -95.627  28.804  1.00  0.00     0.293 HD
ENDBRANCH  15  18
BRANCH  17  20
ATOM     20  O   UNL     1      31.778 -97.125  30.084  1.00  0.00    -0.504 OA
ATOM     21  H   UNL     1      31.466 -97.913  29.528  1.00  0.00     0.293 HD
ENDBRANCH  17  20
ENDBRANCH   1  12
BRANCH   2  22
ATOM     22  O   UNL     1      37.124 -95.865  27.739  1.00  0.00    -0.502 OA
ATOM     23  H   UNL     1      37.666 -96.527  27.198  1.00  0.00     0.293 HD
ENDBRANCH   2  22
BRANCH   6  24
ATOM     24  O   UNL     1      41.375 -95.882  30.947  1.00  0.00    -0.507 OA
ATOM     25  H   UNL     1      42.230 -95.359  30.837  1.00  0.00     0.293 HD
ENDBRANCH   6  24
BRANCH   8  26
ATOM     26  O   UNL     1      39.433 -94.152  34.965  1.00  0.00    -0.508 OA
ATOM     27  H   UNL     1      40.356 -94.008  35.357  1.00  0.00     0.293 HD
ENDBRANCH   8  26
TORSDOF 6
ENDMDL
MODEL 3
REMARK VINA RESULT:    -5.621      9.261     11.013
REMARK INTER + INTRA:          -6.902
REMARK INTER:                  -6.677
REMARK INTRA:                  -0.224
REMARK UNBOUND:                -0.130
REMARK SMILES O=c1c(O)c(-c2ccc(O)c(O)c2)oc2cc(O)cc(O)c12
REMARK SMILES IDX 5 1 3 2 2 3 1 4 22 5 20 6 19 7 17 8 16 9 15 10 14 11 6 12
REMARK SMILES IDX 7 13 8 14 9 15 13 16 11 17 10 18 12 20 4 22 21 24 18 26
REMARK H PARENT 10 19 12 21 4 23 21 25 18 27
REMARK Flexibility Score: inf
ROOT
ATOM      1  C   UNL     1      37.562 -95.444  30.899  1.00  0.00     0.180 A 
ATOM      2  C   UNL     1      38.126 -96.223  29.874  1.00  0.00     0.208 A 
ATOM      3  C   UNL     1      37.422 -96.375  28.669  1.00  0.00     0.238 A 
ATOM      4  O   UNL     1      37.907 -97.118  27.774  1.00  0.00    -0.285 OA
ATOM      5  C   UNL     1      36.172 -95.733  28.497  1.00  0.00     0.111 A 
ATOM      6  C   UNL     1      35.390 -95.786  27.303  1.00  0.00     0.134 A 
ATOM      7  C   UNL     1      34.109 -95.222  27.291  1.00  0.00     0.093 A 
ATOM      8  C   UNL     1      33.606 -94.552  28.406  1.00  0.00     0.123 A 
ATOM      9  C   UNL     1      34.386 -94.443  29.559  1.00  0.00     0.094 A 
ATOM     10  C   UNL     1      35.653 -95.027  29.614  1.00  0.00     0.146 A 
ATOM     11  O   UNL     1      36.358 -94.909  30.732  1.00  0.00    -0.452 OA
ENDROOT
BRANCH   1  12
ATOM     12  C   UNL     1      38.256 -95.218  32.188  1.00  0.00     0.025 A 
ATOM     13  C   UNL     1      39.431 -94.449  32.262  1.00  0.00     0.016 A 
ATOM     14  C   UNL     1      40.055 -94.228  33.492  1.00  0.00     0.051 A 
ATOM     15  C   UNL     1      39.506 -94.758  34.667  1.00  0.00     0.157 A 
ATOM     16  C   UNL     1      37.699 -95.729  33.371  1.00  0.00     0.062 A 
ATOM     17  C   UNL     1      38.325 -95.508  34.607  1.00  0.00     0.158 A 
BRANCH  15  18
ATOM     18  O   UNL     1      40.126 -94.542  35.897  1.00  0.00    -0.504 OA
ATOM     19  H   UNL     1      40.636 -93.688  36.090  1.00  0.00     0.293 HD
ENDBRANCH  15  18
BRANCH  17  20
ATOM     20  O   UNL     1      37.777 -96.029  35.779  1.00  0.00    -0.504 OA
ATOM     21  H   UNL     1      36.775 -96.101  35.909  1.00  0.00     0.293 HD
ENDBRANCH  17  20
ENDBRANCH   1  12
BRANCH   2  22
ATOM     22  O   UNL     1      39.352 -96.865  30.071  1.00  0.00    -0.502 OA
ATOM     23  H   UNL     1      39.790 -96.933  30.982  1.00  0.00     0.293 HD
ENDBRANCH   2  22
BRANCH   6  24
ATOM     24  O   UNL     1      35.835 -96.351  26.105  1.00  0.00    -0.507 OA
ATOM     25  H   UNL     1      36.531 -97.078  26.035  1.00  0.00     0.293 HD
ENDBRANCH   6  24
BRANCH   8  26
ATOM     26  O   UNL     1      32.333 -93.990  28.354  1.00  0.00    -0.508 OA
ATOM     27  H   UNL     1      32.077 -93.203  28.939  1.00  0.00     0.293 HD
ENDBRANCH   8  26
TORSDOF 6
ENDMDL
MODEL 4
REMARK VINA RESULT:    -5.520      8.856     11.014
REMARK INTER + INTRA:          -6.780
REMARK INTER:                  -6.469
REMARK INTRA:                  -0.312
REMARK UNBOUND:                -0.130
REMARK SMILES O=c1c(O)c(-c2ccc(O)c(O)c2)oc2cc(O)cc(O)c12
REMARK SMILES IDX 5 1 3 2 2 3 1 4 22 5 20 6 19 7 17 8 16 9 15 10 14 11 6 12
REMARK SMILES IDX 7 13 8 14 9 15 13 16 11 17 10 18 12 20 4 22 21 24 18 26
REMARK H PARENT 10 19 12 21 4 23 21 25 18 27
REMARK Flexibility Score: inf
ROOT
ATOM      1  C   UNL     1      40.114 -95.555  35.862  1.00  0.00     0.180 A 
ATOM      2  C   UNL     1      41.294 -95.456  35.105  1.00  0.00     0.208 A 
ATOM      3  C   UNL     1      41.198 -95.276  33.716  1.00  0.00     0.238 A 
ATOM      4  O   UNL     1      42.258 -95.242  33.035  1.00  0.00    -0.285 OA
ATOM      5  C   UNL     1      39.925 -95.180  33.104  1.00  0.00     0.111 A 
ATOM      6  C   UNL     1      39.711 -94.956  31.710  1.00  0.00     0.134 A 
ATOM      7  C   UNL     1      38.410 -95.010  31.194  1.00  0.00     0.093 A 
ATOM      8  C   UNL     1      37.312 -95.213  32.029  1.00  0.00     0.123 A 
ATOM      9  C   UNL     1      37.506 -95.373  33.402  1.00  0.00     0.094 A 
ATOM     10  C   UNL     1      38.794 -95.361  33.941  1.00  0.00     0.146 A 
ATOM     11  O   UNL     1      38.936 -95.527  35.251  1.00  0.00    -0.452 OA
ENDROOT
BRANCH   1  12
ATOM     12  C   UNL     1      40.135 -95.721  37.334  1.00  0.00     0.025 A 
ATOM     13  C   UNL     1      40.281 -96.989  37.925  1.00  0.00     0.016 A 
ATOM     14  C   UNL     1      40.323 -97.119  39.315  1.00  0.00     0.051 A 
ATOM     15  C   UNL     1      40.233 -95.986  40.134  1.00  0.00     0.157 A 
ATOM     16  C   UNL     1      40.067 -94.586  38.159  1.00  0.00     0.062 A 
ATOM     17  C   UNL     1      40.108 -94.717  39.555  1.00  0.00     0.158 A 
BRANCH  15  18
ATOM     18  O   UNL     1      40.272 -96.111  41.522  1.00  0.00    -0.504 OA
ATOM     19  H   UNL     1      39.684 -95.543  42.121  1.00  0.00     0.293 HD
ENDBRANCH  15  18
BRANCH  17  20
ATOM     20  O   UNL     1      40.026 -93.590  40.371  1.00  0.00    -0.504 OA
ATOM     21  H   UNL     1      40.616 -93.482  41.188  1.00  0.00     0.293 HD
ENDBRANCH  17  20
ENDBRANCH   1  12
BRANCH   2  22
ATOM     22  O   UNL     1      42.540 -95.575  35.726  1.00  0.00    -0.502 OA
ATOM     23  H   UNL     1      43.399 -95.696  35.203  1.00  0.00     0.293 HD
ENDBRANCH   2  22
BRANCH   6  24
ATOM     24  O   UNL     1      40.730 -94.654  30.803  1.00  0.00    -0.507 OA
ATOM     25  H   UNL     1      41.660 -95.043  30.831  1.00  0.00     0.293 HD
ENDBRANCH   6  24
BRANCH   8  26
ATOM     26  O   UNL     1      36.030 -95.245  31.484  1.00  0.00    -0.508 OA
ATOM     27  H   UNL     1      35.448 -96.072  31.548  1.00  0.00     0.293 HD
ENDBRANCH   8  26
TORSDOF 6
ENDMDL
MODEL 5
REMARK VINA RESULT:    -5.343      1.270      2.997
REMARK INTER + INTRA:          -6.566
REMARK INTER:                  -6.408
REMARK INTRA:                  -0.158
REMARK UNBOUND:                -0.130
REMARK SMILES O=c1c(O)c(-c2ccc(O)c(O)c2)oc2cc(O)cc(O)c12
REMARK SMILES IDX 5 1 3 2 2 3 1 4 22 5 20 6 19 7 17 8 16 9 15 10 14 11 6 12
REMARK SMILES IDX 7 13 8 14 9 15 13 16 11 17 10 18 12 20 4 22 21 24 18 26
REMARK H PARENT 10 19 12 21 4 23 21 25 18 27
REMARK Flexibility Score: inf
ROOT
ATOM      1  C   UNL     1      31.153 -91.965  37.393  1.00  0.00     0.180 A 
ATOM      2  C   UNL     1      32.208 -92.822  37.750  1.00  0.00     0.208 A 
ATOM      3  C   UNL     1      31.959 -94.199  37.862  1.00  0.00     0.238 A 
ATOM      4  O   UNL     1      32.896 -94.955  38.234  1.00  0.00    -0.285 OA
ATOM      5  C   UNL     1      30.663 -94.705  37.597  1.00  0.00     0.111 A 
ATOM      6  C   UNL     1      30.308 -96.087  37.640  1.00  0.00     0.134 A 
ATOM      7  C   UNL     1      28.967 -96.460  37.490  1.00  0.00     0.093 A 
ATOM      8  C   UNL     1      27.979 -95.510  37.234  1.00  0.00     0.123 A 
ATOM      9  C   UNL     1      28.325 -94.161  37.131  1.00  0.00     0.094 A 
ATOM     10  C   UNL     1      29.648 -93.754  37.313  1.00  0.00     0.146 A 
ATOM     11  O   UNL     1      29.934 -92.461  37.217  1.00  0.00    -0.452 OA
ENDROOT
BRANCH   1  12
ATOM     12  C   UNL     1      31.344 -90.505  37.233  1.00  0.00     0.025 A 
ATOM     13  C   UNL     1      32.227 -89.983  36.271  1.00  0.00     0.016 A 
ATOM     14  C   UNL     1      32.372 -88.602  36.121  1.00  0.00     0.051 A 
ATOM     15  C   UNL     1      31.628 -87.723  36.918  1.00  0.00     0.157 A 
ATOM     16  C   UNL     1      30.584 -89.619  38.015  1.00  0.00     0.062 A 
ATOM     17  C   UNL     1      30.731 -88.232  37.865  1.00  0.00     0.158 A 
BRANCH  15  18
ATOM     18  O   UNL     1      31.771 -86.344  36.773  1.00  0.00    -0.504 OA
ATOM     19  H   UNL     1      32.560 -85.849  37.174  1.00  0.00     0.293 HD
ENDBRANCH  15  18
BRANCH  17  20
ATOM     20  O   UNL     1      29.986 -87.355  38.653  1.00  0.00    -0.504 OA
ATOM     21  H   UNL     1      30.368 -86.472  38.971  1.00  0.00     0.293 HD
ENDBRANCH  17  20
ENDBRANCH   1  12
BRANCH   2  22
ATOM     22  O   UNL     1      33.475 -92.300  38.028  1.00  0.00    -0.502 OA
ATOM     23  H   UNL     1      34.072 -91.909  37.309  1.00  0.00     0.293 HD
ENDBRANCH   2  22
BRANCH   6  24
ATOM     24  O   UNL     1      31.231 -97.125  37.798  1.00  0.00    -0.507 OA
ATOM     25  H   UNL     1      32.121 -97.037  38.264  1.00  0.00     0.293 HD
ENDBRANCH   6  24
BRANCH   8  26
ATOM     26  O   UNL     1      26.657 -95.918  37.075  1.00  0.00    -0.508 OA
ATOM     27  H   UNL     1      26.128 -95.685  36.243  1.00  0.00     0.293 HD
ENDBRANCH   8  26
TORSDOF 6
ENDMDL
MODEL 6
REMARK VINA RESULT:    -5.244      7.801     10.496
REMARK INTER + INTRA:          -6.447
REMARK INTER:                  -6.205
REMARK INTRA:                  -0.242
REMARK UNBOUND:                -0.130
REMARK SMILES O=c1c(O)c(-c2ccc(O)c(O)c2)oc2cc(O)cc(O)c12
REMARK SMILES IDX 5 1 3 2 2 3 1 4 22 5 20 6 19 7 17 8 16 9 15 10 14 11 6 12
REMARK SMILES IDX 7 13 8 14 9 15 13 16 11 17 10 18 12 20 4 22 21 24 18 26
REMARK H PARENT 10 19 12 21 4 23 21 25 18 27
REMARK Flexibility Score: inf
ROOT
ATOM      1  C   UNL     1      39.789 -95.388  35.290  1.00  0.00     0.180 A 
ATOM      2  C   UNL     1      40.797 -94.970  36.175  1.00  0.00     0.208 A 
ATOM      3  C   UNL     1      40.580 -95.084  37.558  1.00  0.00     0.238 A 
ATOM      4  O   UNL     1      41.465 -94.659  38.347  1.00  0.00    -0.285 OA
ATOM      5  C   UNL     1      39.365 -95.631  38.037  1.00  0.00     0.111 A 
ATOM      6  C   UNL     1      39.054 -95.832  39.416  1.00  0.00     0.134 A 
ATOM      7  C   UNL     1      37.771 -96.258  39.780  1.00  0.00     0.093 A 
ATOM      8  C   UNL     1      36.809 -96.552  38.815  1.00  0.00     0.123 A 
ATOM      9  C   UNL     1      37.122 -96.417  37.461  1.00  0.00     0.094 A 
ATOM     10  C   UNL     1      38.381 -95.959  37.068  1.00  0.00     0.146 A 
ATOM     11  O   UNL     1      38.634 -95.834  35.771  1.00  0.00    -0.452 OA
ENDROOT
BRANCH   1  12
ATOM     12  C   UNL     1      39.954 -95.320  33.820  1.00  0.00     0.025 A 
ATOM     13  C   UNL     1      39.298 -94.339  33.054  1.00  0.00     0.016 A 
ATOM     14  C   UNL     1      39.489 -94.280  31.671  1.00  0.00     0.051 A 
ATOM     15  C   UNL     1      40.347 -95.186  31.036  1.00  0.00     0.157 A 
ATOM     16  C   UNL     1      40.830 -96.213  33.181  1.00  0.00     0.062 A 
ATOM     17  C   UNL     1      41.021 -96.153  31.792  1.00  0.00     0.158 A 
BRANCH  15  18
ATOM     18  O   UNL     1      40.538 -95.131  29.656  1.00  0.00    -0.504 OA
ATOM     19  H   UNL     1      41.081 -94.391  29.226  1.00  0.00     0.293 HD
ENDBRANCH  15  18
BRANCH  17  20
ATOM     20  O   UNL     1      41.881 -97.050  31.159  1.00  0.00    -0.504 OA
ATOM     21  H   UNL     1      42.887 -96.961  31.232  1.00  0.00     0.293 HD
ENDBRANCH  17  20
ENDBRANCH   1  12
BRANCH   2  22
ATOM     22  O   UNL     1      41.980 -94.413  35.682  1.00  0.00    -0.502 OA
ATOM     23  H   UNL     1      42.648 -94.948  35.139  1.00  0.00     0.293 HD
ENDBRANCH   2  22
BRANCH   6  24
ATOM     24  O   UNL     1      39.972 -95.655  40.456  1.00  0.00    -0.507 OA
ATOM     25  H   UNL     1      40.339 -94.764  40.753  1.00  0.00     0.293 HD
ENDBRANCH   6  24
BRANCH   8  26
ATOM     26  O   UNL     1      35.547 -96.989  39.212  1.00  0.00    -0.508 OA
ATOM     27  H   UNL     1      34.777 -97.050  38.556  1.00  0.00     0.293 HD
ENDBRANCH   8  26
TORSDOF 6
ENDMDL
MODEL 7
REMARK VINA RESULT:    -5.223     15.058     16.762
REMARK INTER + INTRA:          -6.423
REMARK INTER:                  -6.219
REMARK INTRA:                  -0.203
REMARK UNBOUND:                -0.130
REMARK SMILES O=c1c(O)c(-c2ccc(O)c(O)c2)oc2cc(O)cc(O)c12
REMARK SMILES IDX 5 1 3 2 2 3 1 4 22 5 20 6 19 7 17 8 16 9 15 10 14 11 6 12
REMARK SMILES IDX 7 13 8 14 9 15 13 16 11 17 10 18 12 20 4 22 21 24 18 26
REMARK H PARENT 10 19 12 21 4 23 21 25 18 27
REMARK Flexibility Score: inf
ROOT
ATOM      1  C   UNL     1      37.388 -77.863  37.691  1.00  0.00     0.180 A 
ATOM      2  C   UNL     1      37.926 -77.706  36.403  1.00  0.00     0.208 A 
ATOM      3  C   UNL     1      37.053 -77.598  35.309  1.00  0.00     0.238 A 
ATOM      4  O   UNL     1      37.541 -77.511  34.151  1.00  0.00    -0.285 OA
ATOM      5  C   UNL     1      35.653 -77.631  35.519  1.00  0.00     0.111 A 
ATOM      6  C   UNL     1      34.675 -77.490  34.488  1.00  0.00     0.134 A 
ATOM      7  C   UNL     1      33.320 -77.670  34.792  1.00  0.00     0.093 A 
ATOM      8  C   UNL     1      32.902 -77.921  36.098  1.00  0.00     0.123 A 
ATOM      9  C   UNL     1      33.845 -78.001  37.124  1.00  0.00     0.094 A 
ATOM     10  C   UNL     1      35.207 -77.863  36.846  1.00  0.00     0.146 A 
ATOM     11  O   UNL     1      36.072 -77.956  37.848  1.00  0.00    -0.452 OA
ENDROOT
BRANCH   1  12
ATOM     12  C   UNL     1      38.244 -77.959  38.896  1.00  0.00     0.025 A 
ATOM     13  C   UNL     1      39.033 -76.875  39.323  1.00  0.00     0.016 A 
ATOM     14  C   UNL     1      39.814 -76.981  40.476  1.00  0.00     0.051 A 
ATOM     15  C   UNL     1      39.808 -78.163  41.227  1.00  0.00     0.157 A 
ATOM     16  C   UNL     1      38.225 -79.134  39.665  1.00  0.00     0.062 A 
ATOM     17  C   UNL     1      39.011 -79.241  40.823  1.00  0.00     0.158 A 
BRANCH  15  18
ATOM     18  O   UNL     1      40.587 -78.273  42.378  1.00  0.00    -0.504 OA
ATOM     19  H   UNL     1      40.450 -77.658  43.171  1.00  0.00     0.293 HD
ENDBRANCH  15  18
BRANCH  17  20
ATOM     20  O   UNL     1      39.001 -80.414  41.577  1.00  0.00    -0.504 OA
ATOM     21  H   UNL     1      39.166 -80.404  42.576  1.00  0.00     0.293 HD
ENDBRANCH  17  20
ENDBRANCH   1  12
BRANCH   2  22
ATOM     22  O   UNL     1      39.311 -77.697  36.215  1.00  0.00    -0.502 OA
ATOM     23  H   UNL     1      39.949 -78.163  36.850  1.00  0.00     0.293 HD
ENDBRANCH   2  22
BRANCH   6  24
ATOM     24  O   UNL     1      34.978 -77.149  33.167  1.00  0.00    -0.507 OA
ATOM     25  H   UNL     1      34.789 -77.730  32.365  1.00  0.00     0.293 HD
ENDBRANCH   6  24
BRANCH   8  26
ATOM     26  O   UNL     1      31.545 -78.080  36.368  1.00  0.00    -0.508 OA
ATOM     27  H   UNL     1      30.893 -77.309  36.277  1.00  0.00     0.293 HD
ENDBRANCH   8  26
TORSDOF 6
ENDMDL
MODEL 8
REMARK VINA RESULT:    -5.084     15.745     17.820
REMARK INTER + INTRA:          -6.255
REMARK INTER:                  -5.944
REMARK INTRA:                  -0.311
REMARK UNBOUND:                -0.130
REMARK SMILES O=c1c(O)c(-c2ccc(O)c(O)c2)oc2cc(O)cc(O)c12
REMARK SMILES IDX 5 1 3 2 2 3 1 4 22 5 20 6 19 7 17 8 16 9 15 10 14 11 6 12
REMARK SMILES IDX 7 13 8 14 9 15 13 16 11 17 10 18 12 20 4 22 21 24 18 26
REMARK H PARENT 10 19 12 21 4 23 21 25 18 27
REMARK Flexibility Score: inf
ROOT
ATOM      1  C   UNL     1      38.929 -77.662  36.690  1.00  0.00     0.180 A 
ATOM      2  C   UNL     1      37.605 -77.471  36.260  1.00  0.00     0.208 A 
ATOM      3  C   UNL     1      37.357 -77.254  34.896  1.00  0.00     0.238 A 
ATOM      4  O   UNL     1      36.174 -77.030  34.523  1.00  0.00    -0.285 OA
ATOM      5  C   UNL     1      38.433 -77.248  33.976  1.00  0.00     0.111 A 
ATOM      6  C   UNL     1      38.294 -77.079  32.565  1.00  0.00     0.134 A 
ATOM      7  C   UNL     1      39.438 -76.959  31.767  1.00  0.00     0.093 A 
ATOM      8  C   UNL     1      40.715 -77.067  32.318  1.00  0.00     0.123 A 
ATOM      9  C   UNL     1      40.862 -77.293  33.687  1.00  0.00     0.094 A 
ATOM     10  C   UNL     1      39.740 -77.381  34.515  1.00  0.00     0.146 A 
ATOM     11  O   UNL     1      39.923 -77.586  35.813  1.00  0.00    -0.452 OA
ENDROOT
BRANCH   1  12
ATOM     12  C   UNL     1      39.266 -77.920  38.109  1.00  0.00     0.025 A 
ATOM     13  C   UNL     1      39.638 -76.875  38.975  1.00  0.00     0.016 A 
ATOM     14  C   UNL     1      39.929 -77.139  40.316  1.00  0.00     0.051 A 
ATOM     15  C   UNL     1      39.837 -78.444  40.815  1.00  0.00     0.157 A 
ATOM     16  C   UNL     1      39.156 -79.224  38.620  1.00  0.00     0.062 A 
ATOM     17  C   UNL     1      39.448 -79.488  39.967  1.00  0.00     0.158 A 
BRANCH  15  18
ATOM     18  O   UNL     1      40.128 -78.712  42.152  1.00  0.00    -0.504 OA
ATOM     19  H   UNL     1      39.395 -78.902  42.825  1.00  0.00     0.293 HD
ENDBRANCH  15  18
BRANCH  17  20
ATOM     20  O   UNL     1      39.352 -80.786  40.468  1.00  0.00    -0.504 OA
ATOM     21  H   UNL     1      40.032 -81.498  40.230  1.00  0.00     0.293 HD
ENDBRANCH  17  20
ENDBRANCH   1  12
BRANCH   2  22
ATOM     22  O   UNL     1      36.559 -77.459  37.187  1.00  0.00    -0.502 OA
ATOM     23  H   UNL     1      36.639 -77.882  38.104  1.00  0.00     0.293 HD
ENDBRANCH   2  22
BRANCH   6  24
ATOM     24  O   UNL     1      37.064 -77.050  31.901  1.00  0.00    -0.507 OA
ATOM     25  H   UNL     1      36.179 -76.841  32.338  1.00  0.00     0.293 HD
ENDBRANCH   6  24
BRANCH   8  26
ATOM     26  O   UNL     1      41.831 -76.959  31.492  1.00  0.00    -0.508 OA
ATOM     27  H   UNL     1      42.736 -77.318  31.775  1.00  0.00     0.293 HD
ENDBRANCH   8  26
TORSDOF 6
ENDMDL
MODEL 9
REMARK VINA RESULT:    -5.017     15.402     16.929
REMARK INTER + INTRA:          -6.174
REMARK INTER:                  -5.855
REMARK INTRA:                  -0.319
REMARK UNBOUND:                -0.130
REMARK SMILES O=c1c(O)c(-c2ccc(O)c(O)c2)oc2cc(O)cc(O)c12
REMARK SMILES IDX 5 1 3 2 2 3 1 4 22 5 20 6 19 7 17 8 16 9 15 10 14 11 6 12
REMARK SMILES IDX 7 13 8 14 9 15 13 16 11 17 10 18 12 20 4 22 21 24 18 26
REMARK H PARENT 10 19 12 21 4 23 21 25 18 27
REMARK Flexibility Score: inf
ROOT
ATOM      1  C   UNL     1      37.290 -77.827  37.372  1.00  0.00     0.180 A 
ATOM      2  C   UNL     1      35.887 -77.792  37.440  1.00  0.00     0.208 A 
ATOM      3  C   UNL     1      35.152 -77.625  36.256  1.00  0.00     0.238 A 
ATOM      4  O   UNL     1      33.897 -77.541  36.329  1.00  0.00    -0.285 OA
ATOM      5  C   UNL     1      35.828 -77.511  35.017  1.00  0.00     0.111 A 
ATOM      6  C   UNL     1      35.183 -77.379  33.750  1.00  0.00     0.134 A 
ATOM      7  C   UNL     1      35.953 -77.142  32.605  1.00  0.00     0.093 A 
ATOM      8  C   UNL     1      37.345 -77.097  32.669  1.00  0.00     0.123 A 
ATOM      9  C   UNL     1      37.988 -77.285  33.893  1.00  0.00     0.094 A 
ATOM     10  C   UNL     1      37.247 -77.487  35.059  1.00  0.00     0.146 A 
ATOM     11  O   UNL     1      37.897 -77.651  36.204  1.00  0.00    -0.452 OA
ENDROOT
BRANCH   1  12
ATOM     12  C   UNL     1      38.132 -78.024  38.575  1.00  0.00     0.025 A 
ATOM     13  C   UNL     1      38.626 -76.931  39.310  1.00  0.00     0.016 A 
ATOM     14  C   UNL     1      39.397 -77.142  40.456  1.00  0.00     0.051 A 
ATOM     15  C   UNL     1      39.674 -78.444  40.891  1.00  0.00     0.157 A 
ATOM     16  C   UNL     1      38.395 -79.327  39.029  1.00  0.00     0.062 A 
ATOM     17  C   UNL     1      39.171 -79.538  40.178  1.00  0.00     0.158 A 
BRANCH  15  18
ATOM     18  O   UNL     1      40.446 -78.658  42.032  1.00  0.00    -0.504 OA
ATOM     19  H   UNL     1      40.460 -79.557  42.500  1.00  0.00     0.293 HD
ENDBRANCH  15  18
BRANCH  17  20
ATOM     20  O   UNL     1      39.442 -80.834  40.618  1.00  0.00    -0.504 OA
ATOM     21  H   UNL     1      38.740 -81.391  41.091  1.00  0.00     0.293 HD
ENDBRANCH  17  20
ENDBRANCH   1  12
BRANCH   2  22
ATOM     22  O   UNL     1      35.240 -77.885  38.676  1.00  0.00    -0.502 OA
ATOM     23  H   UNL     1      34.327 -77.479  38.844  1.00  0.00     0.293 HD
ENDBRANCH   2  22
BRANCH   6  24
ATOM     24  O   UNL     1      33.803 -77.498  33.562  1.00  0.00    -0.507 OA
ATOM     25  H   UNL     1      33.367 -77.966  32.782  1.00  0.00     0.293 HD
ENDBRANCH   6  24
BRANCH   8  26
ATOM     26  O   UNL     1      38.080 -76.875  31.506  1.00  0.00    -0.508 OA
ATOM     27  H   UNL     1      37.696 -77.077  30.591  1.00  0.00     0.293 HD
ENDBRANCH   8  26
TORSDOF 6
ENDMDL
