MODEL 1
REMARK VINA RESULT:    12.319      0.000      0.000
REMARK INTER + INTRA:          27.803
REMARK INTER:                  28.162
REMARK INTRA:                  -0.359
REMARK UNBOUND:                -0.359
REMARK SMILES CCCCCCCCCCCCCCCCCCCCCCCC(=O)[O-]
REMARK SMILES IDX 13 1 14 2 15 3 16 4 17 5 18 6 19 7 20 8 21 9 22 10 23 11
REMARK SMILES IDX 24 12 25 13 26 14 12 15 11 16 10 17 9 18 8 19 7 20 6 21 5 22
REMARK SMILES IDX 4 23 3 24 2 25 1 26
REMARK H PARENT
REMARK Flexibility Score: inf
ROOT
ATOM      1  C   UNL     1      83.401  14.175 107.375  1.00  0.00     0.000 C 
ENDROOT
BRANCH   1   2
ATOM      2  C   UNL     1      83.885  13.925 108.814  1.00  0.00     0.000 C 
BRANCH   2   3
ATOM      3  C   UNL     1      85.416  13.836 108.915  1.00  0.00     0.000 C 
BRANCH   3   4
ATOM      4  C   UNL     1      86.096  13.715 107.542  1.00  0.00     0.000 C 
BRANCH   4   5
ATOM      5  C   UNL     1      87.599  14.011 107.645  1.00  0.00     0.000 C 
BRANCH   5   6
ATOM      6  C   UNL     1      88.360  13.720 106.339  1.00  0.00     0.000 C 
BRANCH   6   7
ATOM      7  C   UNL     1      89.180  12.416 106.341  1.00  0.00     0.000 C 
BRANCH   7   8
ATOM      8  C   UNL     1      88.729  11.424 105.259  1.00  0.00     0.000 C 
BRANCH   8   9
ATOM      9  C   UNL     1      89.631  10.181 105.243  1.00  0.00     0.000 C 
BRANCH   9  10
ATOM     10  C   UNL     1      89.882   9.599 106.646  1.00  0.00     0.006 C 
BRANCH  10  11
ATOM     11  C   UNL     1      90.841   8.395 106.658  1.00  0.00     0.053 C 
BRANCH  11  12
ATOM     12  C   UNL     1      90.910   7.730 107.999  1.00  0.00     0.041 C 
ATOM     13  O   UNL     1      90.032   7.967 108.870  1.00  0.00    -0.550 OA
ATOM     14  O   UNL     1      91.964   6.875 108.303  1.00  0.00    -0.550 OA
ENDBRANCH  11  12
ENDBRANCH  10  11
ENDBRANCH   9  10
ENDBRANCH   8   9
ENDBRANCH   7   8
ENDBRANCH   6   7
ENDBRANCH   5   6
ENDBRANCH   4   5
ENDBRANCH   3   4
ENDBRANCH   2   3
ENDBRANCH   1   2
BRANCH   1  15
ATOM     15  C   UNL     1      83.939  15.491 106.790  1.00  0.00     0.000 C 
BRANCH  15  16
ATOM     16  C   UNL     1      84.097  16.592 107.854  1.00  0.00     0.000 C 
BRANCH  16  17
ATOM     17  C   UNL     1      85.432  17.343 107.727  1.00  0.00     0.000 C 
BRANCH  17  18
ATOM     18  C   UNL     1      85.334  18.808 108.189  1.00  0.00    -0.000 C 
BRANCH  18  19
ATOM     19  C   UNL     1      86.526  19.233 109.064  1.00  0.00    -0.000 C 
BRANCH  19  20
ATOM     20  C   UNL     1      86.495  20.732 109.411  1.00  0.00    -0.000 C 
BRANCH  20  21
ATOM     21  C   UNL     1      87.869  21.262 109.853  1.00  0.00    -0.000 C 
BRANCH  21  22
ATOM     22  C   UNL     1      88.098  21.128 111.369  1.00  0.00    -0.000 C 
BRANCH  22  23
ATOM     23  C   UNL     1      88.802  22.354 111.977  1.00  0.00    -0.000 C 
BRANCH  23  24
ATOM     24  C   UNL     1      90.305  22.168 112.252  1.00  0.00    -0.000 C 
BRANCH  24  25
ATOM     25  C   UNL     1      90.638  20.790 112.841  1.00  0.00    -0.003 C 
ATOM     26  C   UNL     1      91.974  20.274 112.313  1.00  0.00     0.004 C 
ENDBRANCH  24  25
ENDBRANCH  23  24
ENDBRANCH  22  23
ENDBRANCH  21  22
ENDBRANCH  20  21
ENDBRANCH  19  20
ENDBRANCH  18  19
ENDBRANCH  17  18
ENDBRANCH  16  17
ENDBRANCH  15  16
ENDBRANCH   1  15
TORSDOF 22
ENDMDL
MODEL 2
REMARK VINA RESULT:    12.350      3.631     10.365
REMARK INTER + INTRA:          27.875
REMARK INTER:                  28.235
REMARK INTRA:                  -0.360
REMARK UNBOUND:                -0.359
REMARK SMILES CCCCCCCCCCCCCCCCCCCCCCCC(=O)[O-]
REMARK SMILES IDX 13 1 14 2 15 3 16 4 17 5 18 6 19 7 20 8 21 9 22 10 23 11
REMARK SMILES IDX 24 12 25 13 26 14 12 15 11 16 10 17 9 18 8 19 7 20 6 21 5 22
REMARK SMILES IDX 4 23 3 24 2 25 1 26
REMARK H PARENT
REMARK Flexibility Score: inf
ROOT
ATOM      1  C   UNL     1      83.274  14.837 107.541  1.00  0.00     0.000 C 
ENDROOT
BRANCH   1   2
ATOM      2  C   UNL     1      84.228  15.935 107.041  1.00  0.00     0.000 C 
BRANCH   2   3
ATOM      3  C   UNL     1      84.554  16.974 108.125  1.00  0.00     0.000 C 
BRANCH   3   4
ATOM      4  C   UNL     1      85.291  18.202 107.568  1.00  0.00     0.000 C 
BRANCH   4   5
ATOM      5  C   UNL     1      85.367  19.320 108.618  1.00  0.00     0.000 C 
BRANCH   5   6
ATOM      6  C   UNL     1      86.810  19.652 109.040  1.00  0.00     0.000 C 
BRANCH   6   7
ATOM      7  C   UNL     1      87.045  21.116 109.457  1.00  0.00     0.000 C 
BRANCH   7   8
ATOM      8  C   UNL     1      87.403  21.265 110.943  1.00  0.00     0.000 C 
BRANCH   8   9
ATOM      9  C   UNL     1      88.917  21.124 111.160  1.00  0.00     0.000 C 
BRANCH   9  10
ATOM     10  C   UNL     1      89.532  22.312 111.919  1.00  0.00     0.006 C 
BRANCH  10  11
ATOM     11  C   UNL     1      90.661  21.917 112.888  1.00  0.00     0.053 C 
BRANCH  11  12
ATOM     12  C   UNL     1      91.249  20.576 112.569  1.00  0.00     0.041 C 
ATOM     13  O   UNL     1      92.290  20.492 111.867  1.00  0.00    -0.550 OA
ATOM     14  O   UNL     1      90.627  19.415 113.015  1.00  0.00    -0.550 OA
ENDBRANCH  11  12
ENDBRANCH  10  11
ENDBRANCH   9  10
ENDBRANCH   8   9
ENDBRANCH   7   8
ENDBRANCH   6   7
ENDBRANCH   5   6
ENDBRANCH   4   5
ENDBRANCH   3   4
ENDBRANCH   2   3
ENDBRANCH   1   2
BRANCH   1  15
ATOM     15  C   UNL     1      84.020  13.616 108.104  1.00  0.00     0.000 C 
BRANCH  15  16
ATOM     16  C   UNL     1      85.524  13.878 108.297  1.00  0.00     0.000 C 
BRANCH  16  17
ATOM     17  C   UNL     1      86.373  13.297 107.154  1.00  0.00     0.000 C 
BRANCH  17  18
ATOM     18  C   UNL     1      87.884  13.455 107.398  1.00  0.00    -0.000 C 
BRANCH  18  19
ATOM     19  C   UNL     1      88.710  13.317 106.108  1.00  0.00    -0.000 C 
BRANCH  19  20
ATOM     20  C   UNL     1      88.705  11.879 105.558  1.00  0.00    -0.000 C 
BRANCH  20  21
ATOM     21  C   UNL     1      89.690  10.962 106.301  1.00  0.00    -0.000 C 
BRANCH  21  22
ATOM     22  C   UNL     1      89.821   9.576 105.645  1.00  0.00    -0.000 C 
BRANCH  22  23
ATOM     23  C   UNL     1      90.709   8.614 106.456  1.00  0.00    -0.000 C 
BRANCH  23  24
ATOM     24  C   UNL     1      90.104   8.145 107.791  1.00  0.00    -0.000 C 
BRANCH  24  25
ATOM     25  C   UNL     1      90.927   7.037 108.464  1.00  0.00    -0.003 C 
ATOM     26  C   UNL     1      92.361   7.025 107.945  1.00  0.00     0.004 C 
ENDBRANCH  24  25
ENDBRANCH  23  24
ENDBRANCH  22  23
ENDBRANCH  21  22
ENDBRANCH  20  21
ENDBRANCH  19  20
ENDBRANCH  18  19
ENDBRANCH  17  18
ENDBRANCH  16  17
ENDBRANCH  15  16
ENDBRANCH   1  15
TORSDOF 22
ENDMDL
MODEL 3
REMARK VINA RESULT:    12.598      0.762      1.717
REMARK INTER + INTRA:          28.442
REMARK INTER:                  29.293
REMARK INTRA:                  -0.852
REMARK UNBOUND:                -0.359
REMARK SMILES CCCCCCCCCCCCCCCCCCCCCCCC(=O)[O-]
REMARK SMILES IDX 13 1 14 2 15 3 16 4 17 5 18 6 19 7 20 8 21 9 22 10 23 11
REMARK SMILES IDX 24 12 25 13 26 14 12 15 11 16 10 17 9 18 8 19 7 20 6 21 5 22
REMARK SMILES IDX 4 23 3 24 2 25 1 26
REMARK H PARENT
REMARK Flexibility Score: inf
ROOT
ATOM      1  C   UNL     1      84.846  16.432 107.318  1.00  0.00     0.000 C 
ENDROOT
BRANCH   1   2
ATOM      2  C   UNL     1      83.964  15.201 107.587  1.00  0.00     0.000 C 
BRANCH   2   3
ATOM      3  C   UNL     1      84.695  14.115 108.392  1.00  0.00     0.000 C 
BRANCH   3   4
ATOM      4  C   UNL     1      85.670  13.294 107.533  1.00  0.00     0.000 C 
BRANCH   4   5
ATOM      5  C   UNL     1      87.109  13.809 107.691  1.00  0.00     0.000 C 
BRANCH   5   6
ATOM      6  C   UNL     1      87.907  13.777 106.375  1.00  0.00     0.000 C 
BRANCH   6   7
ATOM      7  C   UNL     1      89.172  12.899 106.402  1.00  0.00     0.000 C 
BRANCH   7   8
ATOM      8  C   UNL     1      88.957  11.518 105.766  1.00  0.00     0.000 C 
BRANCH   8   9
ATOM      9  C   UNL     1      89.617  10.416 106.609  1.00  0.00     0.000 C 
BRANCH   9  10
ATOM     10  C   UNL     1      90.364   9.372 105.760  1.00  0.00     0.006 C 
BRANCH  10  11
ATOM     11  C   UNL     1      90.334   7.951 106.351  1.00  0.00     0.053 C 
BRANCH  11  12
ATOM     12  C   UNL     1      90.927   7.887 107.725  1.00  0.00     0.041 C 
ATOM     13  O   UNL     1      92.133   7.559 107.880  1.00  0.00    -0.550 OA
ATOM     14  O   UNL     1      90.140   8.155 108.840  1.00  0.00    -0.550 OA
ENDBRANCH  11  12
ENDBRANCH  10  11
ENDBRANCH   9  10
ENDBRANCH   8   9
ENDBRANCH   7   8
ENDBRANCH   6   7
ENDBRANCH   5   6
ENDBRANCH   4   5
ENDBRANCH   3   4
ENDBRANCH   2   3
ENDBRANCH   1   2
BRANCH   1  15
ATOM     15  C   UNL     1      84.191  17.743 107.785  1.00  0.00     0.000 C 
BRANCH  15  16
ATOM     16  C   UNL     1      85.138  18.950 107.677  1.00  0.00     0.000 C 
BRANCH  16  17
ATOM     17  C   UNL     1      86.270  18.904 108.715  1.00  0.00     0.000 C 
BRANCH  17  18
ATOM     18  C   UNL     1      86.197  20.062 109.726  1.00  0.00    -0.000 C 
BRANCH  18  19
ATOM     19  C   UNL     1      87.252  21.149 109.459  1.00  0.00    -0.000 C 
BRANCH  19  20
ATOM     20  C   UNL     1      88.451  21.052 110.419  1.00  0.00    -0.000 C 
BRANCH  20  21
ATOM     21  C   UNL     1      88.266  21.911 111.680  1.00  0.00    -0.000 C 
BRANCH  21  22
ATOM     22  C   UNL     1      89.487  22.801 111.976  1.00  0.00    -0.000 C 
BRANCH  22  23
ATOM     23  C   UNL     1      90.728  21.993 112.392  1.00  0.00    -0.000 C 
BRANCH  23  24
ATOM     24  C   UNL     1      90.426  20.668 113.115  1.00  0.00    -0.000 C 
BRANCH  24  25
ATOM     25  C   UNL     1      91.325  19.513 112.650  1.00  0.00    -0.003 C 
ATOM     26  C   UNL     1      92.542  20.036 111.892  1.00  0.00     0.004 C 
ENDBRANCH  24  25
ENDBRANCH  23  24
ENDBRANCH  22  23
ENDBRANCH  21  22
ENDBRANCH  20  21
ENDBRANCH  19  20
ENDBRANCH  18  19
ENDBRANCH  17  18
ENDBRANCH  16  17
ENDBRANCH  15  16
ENDBRANCH   1  15
TORSDOF 22
ENDMDL
MODEL 4
REMARK VINA RESULT:    13.163      3.662      9.914
REMARK INTER + INTRA:          29.734
REMARK INTER:                  29.685
REMARK INTRA:                   0.048
REMARK UNBOUND:                -0.359
REMARK SMILES CCCCCCCCCCCCCCCCCCCCCCCC(=O)[O-]
REMARK SMILES IDX 13 1 14 2 15 3 16 4 17 5 18 6 19 7 20 8 21 9 22 10 23 11
REMARK SMILES IDX 24 12 25 13 26 14 12 15 11 16 10 17 9 18 8 19 7 20 6 21 5 22
REMARK SMILES IDX 4 23 3 24 2 25 1 26
REMARK H PARENT
REMARK Flexibility Score: inf
ROOT
ATOM      1  C   UNL     1      83.596  15.486 106.522  1.00  0.00     0.000 C 
ENDROOT
BRANCH   1   2
ATOM      2  C   UNL     1      84.649  16.244 107.350  1.00  0.00     0.000 C 
BRANCH   2   3
ATOM      3  C   UNL     1      84.128  17.590 107.878  1.00  0.00     0.000 C 
BRANCH   3   4
ATOM      4  C   UNL     1      85.149  18.727 107.713  1.00  0.00     0.000 C 
BRANCH   4   5
ATOM      5  C   UNL     1      85.728  19.147 109.072  1.00  0.00     0.000 C 
BRANCH   5   6
ATOM      6  C   UNL     1      86.897  20.141 108.946  1.00  0.00     0.000 C 
BRANCH   6   7
ATOM      7  C   UNL     1      87.074  21.092 110.144  1.00  0.00     0.000 C 
BRANCH   7   8
ATOM      8  C   UNL     1      88.508  21.103 110.693  1.00  0.00     0.000 C 
BRANCH   8   9
ATOM      9  C   UNL     1      88.592  21.919 111.992  1.00  0.00     0.000 C 
BRANCH   9  10
ATOM     10  C   UNL     1      89.941  22.639 112.167  1.00  0.00     0.006 C 
BRANCH  10  11
ATOM     11  C   UNL     1      90.940  21.885 113.062  1.00  0.00     0.053 C 
BRANCH  11  12
ATOM     12  C   UNL     1      91.252  20.513 112.545  1.00  0.00     0.041 C 
ATOM     13  O   UNL     1      90.462  19.558 112.768  1.00  0.00    -0.550 OA
ATOM     14  O   UNL     1      92.432  20.279 111.848  1.00  0.00    -0.550 OA
ENDBRANCH  11  12
ENDBRANCH  10  11
ENDBRANCH   9  10
ENDBRANCH   8   9
ENDBRANCH   7   8
ENDBRANCH   6   7
ENDBRANCH   5   6
ENDBRANCH   4   5
ENDBRANCH   3   4
ENDBRANCH   2   3
ENDBRANCH   1   2
BRANCH   1  15
ATOM     15  C   UNL     1      83.054  14.244 107.249  1.00  0.00     0.000 C 
BRANCH  15  16
ATOM     16  C   UNL     1      83.181  14.350 108.779  1.00  0.00     0.000 C 
BRANCH  16  17
ATOM     17  C   UNL     1      84.550  13.872 109.288  1.00  0.00     0.000 C 
BRANCH  17  18
ATOM     18  C   UNL     1      85.336  13.082 108.226  1.00  0.00    -0.000 C 
BRANCH  18  19
ATOM     19  C   UNL     1      86.754  13.634 108.007  1.00  0.00    -0.000 C 
BRANCH  19  20
ATOM     20  C   UNL     1      87.274  13.370 106.582  1.00  0.00    -0.000 C 
BRANCH  20  21
ATOM     21  C   UNL     1      88.807  13.276 106.523  1.00  0.00    -0.000 C 
BRANCH  21  22
ATOM     22  C   UNL     1      89.299  12.221 105.516  1.00  0.00    -0.000 C 
BRANCH  22  23
ATOM     23  C   UNL     1      89.151  10.781 106.040  1.00  0.00    -0.000 C 
BRANCH  23  24
ATOM     24  C   UNL     1      90.440   9.942 106.002  1.00  0.00    -0.000 C 
BRANCH  24  25
ATOM     25  C   UNL     1      90.197   8.457 106.310  1.00  0.00    -0.003 C 
ATOM     26  C   UNL     1      90.775   8.076 107.670  1.00  0.00     0.004 C 
ENDBRANCH  24  25
ENDBRANCH  23  24
ENDBRANCH  22  23
ENDBRANCH  21  22
ENDBRANCH  20  21
ENDBRANCH  19  20
ENDBRANCH  18  19
ENDBRANCH  17  18
ENDBRANCH  16  17
ENDBRANCH  15  16
ENDBRANCH   1  15
TORSDOF 22
ENDMDL
MODEL 5
REMARK VINA RESULT:    13.201      4.709      6.375
REMARK INTER + INTRA:          29.820
REMARK INTER:                  30.262
REMARK INTRA:                  -0.443
REMARK UNBOUND:                -0.359
REMARK SMILES CCCCCCCCCCCCCCCCCCCCCCCC(=O)[O-]
REMARK SMILES IDX 13 1 14 2 15 3 16 4 17 5 18 6 19 7 20 8 21 9 22 10 23 11
REMARK SMILES IDX 24 12 25 13 26 14 12 15 11 16 10 17 9 18 8 19 7 20 6 21 5 22
REMARK SMILES IDX 4 23 3 24 2 25 1 26
REMARK H PARENT
REMARK Flexibility Score: inf
ROOT
ATOM      1  C   UNL     1      86.126  19.295 108.801  1.00  0.00     0.000 C 
ENDROOT
BRANCH   1   2
ATOM      2  C   UNL     1      85.193  19.289 107.578  1.00  0.00     0.000 C 
BRANCH   2   3
ATOM      3  C   UNL     1      84.207  18.111 107.592  1.00  0.00     0.000 C 
BRANCH   3   4
ATOM      4  C   UNL     1      84.770  16.875 108.311  1.00  0.00     0.000 C 
BRANCH   4   5
ATOM      5  C   UNL     1      84.821  15.665 107.366  1.00  0.00     0.000 C 
BRANCH   5   6
ATOM      6  C   UNL     1      83.536  15.497 106.535  1.00  0.00     0.000 C 
BRANCH   6   7
ATOM      7  C   UNL     1      82.661  14.292 106.926  1.00  0.00     0.000 C 
BRANCH   7   8
ATOM      8  C   UNL     1      83.442  12.971 106.961  1.00  0.00     0.000 C 
BRANCH   8   9
ATOM      9  C   UNL     1      83.604  12.467 108.403  1.00  0.00     0.000 C 
BRANCH   9  10
ATOM     10  C   UNL     1      84.711  13.203 109.179  1.00  0.00     0.006 C 
BRANCH  10  11
ATOM     11  C   UNL     1      84.222  13.879 110.473  1.00  0.00     0.053 C 
BRANCH  11  12
ATOM     12  C   UNL     1      82.747  13.721 110.681  1.00  0.00     0.041 C 
ATOM     13  O   UNL     1      81.934  14.230 109.865  1.00  0.00    -0.550 OA
ATOM     14  O   UNL     1      82.266  13.044 111.796  1.00  0.00    -0.550 OA
ENDBRANCH  11  12
ENDBRANCH  10  11
ENDBRANCH   9  10
ENDBRANCH   8   9
ENDBRANCH   7   8
ENDBRANCH   6   7
ENDBRANCH   5   6
ENDBRANCH   4   5
ENDBRANCH   3   4
ENDBRANCH   2   3
ENDBRANCH   1   2
BRANCH   1  15
ATOM     15  C   UNL     1      86.711  20.687 109.093  1.00  0.00     0.000 C 
BRANCH  15  16
ATOM     16  C   UNL     1      87.265  20.809 110.523  1.00  0.00     0.000 C 
BRANCH  16  17
ATOM     17  C   UNL     1      88.481  21.747 110.604  1.00  0.00     0.000 C 
BRANCH  17  18
ATOM     18  C   UNL     1      88.489  22.598 111.886  1.00  0.00    -0.000 C 
BRANCH  18  19
ATOM     19  C   UNL     1      89.770  23.436 112.032  1.00  0.00    -0.000 C 
BRANCH  19  20
ATOM     20  C   UNL     1      90.968  22.600 112.520  1.00  0.00    -0.000 C 
BRANCH  20  21
ATOM     21  C   UNL     1      90.678  21.874 113.844  1.00  0.00    -0.000 C 
BRANCH  21  22
ATOM     22  C   UNL     1      90.113  20.458 113.633  1.00  0.00    -0.000 C 
BRANCH  22  23
ATOM     23  C   UNL     1      90.718  19.751 112.407  1.00  0.00    -0.000 C 
BRANCH  23  24
ATOM     24  C   UNL     1      92.182  19.306 112.572  1.00  0.00    -0.000 C 
BRANCH  24  25
ATOM     25  C   UNL     1      93.093  19.811 111.444  1.00  0.00    -0.003 C 
ATOM     26  C   UNL     1      94.564  19.591 111.784  1.00  0.00     0.004 C 
ENDBRANCH  24  25
ENDBRANCH  23  24
ENDBRANCH  22  23
ENDBRANCH  21  22
ENDBRANCH  20  21
ENDBRANCH  19  20
ENDBRANCH  18  19
ENDBRANCH  17  18
ENDBRANCH  16  17
ENDBRANCH  15  16
ENDBRANCH   1  15
TORSDOF 22
ENDMDL
MODEL 6
REMARK VINA RESULT:    13.245      5.095      9.947
REMARK INTER + INTRA:          29.921
REMARK INTER:                  29.822
REMARK INTRA:                   0.099
REMARK UNBOUND:                -0.359
REMARK SMILES CCCCCCCCCCCCCCCCCCCCCCCC(=O)[O-]
REMARK SMILES IDX 13 1 14 2 15 3 16 4 17 5 18 6 19 7 20 8 21 9 22 10 23 11
REMARK SMILES IDX 24 12 25 13 26 14 12 15 11 16 10 17 9 18 8 19 7 20 6 21 5 22
REMARK SMILES IDX 4 23 3 24 2 25 1 26
REMARK H PARENT
REMARK Flexibility Score: inf
ROOT
ATOM      1  C   UNL     1      85.912  19.435 109.002  1.00  0.00     0.000 C 
ENDROOT
BRANCH   1   2
ATOM      2  C   UNL     1      86.771  20.708 109.086  1.00  0.00     0.000 C 
BRANCH   2   3
ATOM      3  C   UNL     1      87.147  21.074 110.530  1.00  0.00     0.000 C 
BRANCH   3   4
ATOM      4  C   UNL     1      88.547  21.700 110.639  1.00  0.00     0.000 C 
BRANCH   4   5
ATOM      5  C   UNL     1      88.686  22.511 111.936  1.00  0.00     0.000 C 
BRANCH   5   6
ATOM      6  C   UNL     1      90.087  23.124 112.114  1.00  0.00     0.000 C 
BRANCH   6   7
ATOM      7  C   UNL     1      90.867  22.617 113.341  1.00  0.00     0.000 C 
BRANCH   7   8
ATOM      8  C   UNL     1      90.176  21.443 114.047  1.00  0.00     0.000 C 
BRANCH   8   9
ATOM      9  C   UNL     1      90.079  20.223 113.118  1.00  0.00     0.000 C 
BRANCH   9  10
ATOM     10  C   UNL     1      91.233  20.144 112.103  1.00  0.00     0.006 C 
BRANCH  10  11
ATOM     11  C   UNL     1      92.536  19.567 112.684  1.00  0.00     0.053 C 
BRANCH  11  12
ATOM     12  C   UNL     1      93.689  19.682 111.734  1.00  0.00     0.041 C 
ATOM     13  O   UNL     1      94.868  19.515 112.145  1.00  0.00    -0.550 OA
ATOM     14  O   UNL     1      93.467  20.008 110.401  1.00  0.00    -0.550 OA
ENDBRANCH  11  12
ENDBRANCH  10  11
ENDBRANCH   9  10
ENDBRANCH   8   9
ENDBRANCH   7   8
ENDBRANCH   6   7
ENDBRANCH   5   6
ENDBRANCH   4   5
ENDBRANCH   3   4
ENDBRANCH   2   3
ENDBRANCH   1   2
BRANCH   1  15
ATOM     15  C   UNL     1      85.270  19.244 107.618  1.00  0.00     0.000 C 
BRANCH  15  16
ATOM     16  C   UNL     1      84.204  18.134 107.607  1.00  0.00     0.000 C 
BRANCH  16  17
ATOM     17  C   UNL     1      84.763  16.779 108.069  1.00  0.00     0.000 C 
BRANCH  17  18
ATOM     18  C   UNL     1      84.774  15.728 106.944  1.00  0.00    -0.000 C 
BRANCH  18  19
ATOM     19  C   UNL     1      83.373  15.460 106.370  1.00  0.00    -0.000 C 
BRANCH  19  20
ATOM     20  C   UNL     1      82.657  14.299 107.084  1.00  0.00    -0.000 C 
BRANCH  20  21
ATOM     21  C   UNL     1      83.393  12.960 106.911  1.00  0.00    -0.000 C 
BRANCH  21  22
ATOM     22  C   UNL     1      83.858  12.361 108.251  1.00  0.00    -0.000 C 
BRANCH  22  23
ATOM     23  C   UNL     1      84.692  13.347 109.088  1.00  0.00    -0.000 C 
BRANCH  23  24
ATOM     24  C   UNL     1      83.920  14.053 110.217  1.00  0.00    -0.000 C 
BRANCH  24  25
ATOM     25  C   UNL     1      82.498  13.503 110.404  1.00  0.00    -0.003 C 
ATOM     26  C   UNL     1      81.966  13.816 111.800  1.00  0.00     0.004 C 
ENDBRANCH  24  25
ENDBRANCH  23  24
ENDBRANCH  22  23
ENDBRANCH  21  22
ENDBRANCH  20  21
ENDBRANCH  19  20
ENDBRANCH  18  19
ENDBRANCH  17  18
ENDBRANCH  16  17
ENDBRANCH  15  16
ENDBRANCH   1  15
TORSDOF 22
ENDMDL
MODEL 7
REMARK VINA RESULT:    14.400      4.481      7.719
REMARK INTER + INTRA:          32.562
REMARK INTER:                  33.044
REMARK INTRA:                  -0.482
REMARK UNBOUND:                -0.359
REMARK SMILES CCCCCCCCCCCCCCCCCCCCCCCC(=O)[O-]
REMARK SMILES IDX 13 1 14 2 15 3 16 4 17 5 18 6 19 7 20 8 21 9 22 10 23 11
REMARK SMILES IDX 24 12 25 13 26 14 12 15 11 16 10 17 9 18 8 19 7 20 6 21 5 22
REMARK SMILES IDX 4 23 3 24 2 25 1 26
REMARK H PARENT
REMARK Flexibility Score: inf
ROOT
ATOM      1  C   UNL     1      87.839  21.848 110.712  1.00  0.00     0.000 C 
ENDROOT
BRANCH   1   2
ATOM      2  C   UNL     1      86.969  20.630 110.360  1.00  0.00     0.000 C 
BRANCH   2   3
ATOM      3  C   UNL     1      86.658  20.540 108.857  1.00  0.00     0.000 C 
BRANCH   3   4
ATOM      4  C   UNL     1      86.269  19.120 108.415  1.00  0.00     0.000 C 
BRANCH   4   5
ATOM      5  C   UNL     1      84.833  19.087 107.872  1.00  0.00     0.000 C 
BRANCH   5   6
ATOM      6  C   UNL     1      84.363  17.669 107.501  1.00  0.00     0.000 C 
BRANCH   6   7
ATOM      7  C   UNL     1      85.447  16.579 107.596  1.00  0.00     0.000 C 
BRANCH   7   8
ATOM      8  C   UNL     1      84.970  15.214 107.082  1.00  0.00     0.000 C 
BRANCH   8   9
ATOM      9  C   UNL     1      83.442  15.091 107.185  1.00  0.00     0.000 C 
BRANCH   9  10
ATOM     10  C   UNL     1      82.955  13.632 107.236  1.00  0.00     0.006 C 
BRANCH  10  11
ATOM     11  C   UNL     1      83.579  12.805 108.375  1.00  0.00     0.053 C 
BRANCH  11  12
ATOM     12  C   UNL     1      83.714  13.588 109.645  1.00  0.00     0.041 C 
ATOM     13  O   UNL     1      84.855  13.876 110.094  1.00  0.00    -0.550 OA
ATOM     14  O   UNL     1      82.582  13.968 110.356  1.00  0.00    -0.550 OA
ENDBRANCH  11  12
ENDBRANCH  10  11
ENDBRANCH   9  10
ENDBRANCH   8   9
ENDBRANCH   7   8
ENDBRANCH   6   7
ENDBRANCH   5   6
ENDBRANCH   4   5
ENDBRANCH   3   4
ENDBRANCH   2   3
ENDBRANCH   1   2
BRANCH   1  15
ATOM     15  C   UNL     1      88.980  21.499 111.683  1.00  0.00     0.000 C 
BRANCH  15  16
ATOM     16  C   UNL     1      89.771  22.739 112.137  1.00  0.00     0.000 C 
BRANCH  16  17
ATOM     17  C   UNL     1      90.668  22.450 113.351  1.00  0.00     0.000 C 
BRANCH  17  18
ATOM     18  C   UNL     1      91.321  21.057 113.289  1.00  0.00    -0.000 C 
BRANCH  18  19
ATOM     19  C   UNL     1      91.958  20.763 111.920  1.00  0.00    -0.000 C 
BRANCH  19  20
ATOM     20  C   UNL     1      92.886  19.535 111.955  1.00  0.00    -0.000 C 
BRANCH  20  21
ATOM     21  C   UNL     1      93.976  19.591 110.873  1.00  0.00    -0.000 C 
BRANCH  21  22
ATOM     22  C   UNL     1      93.721  20.692 109.829  1.00  0.00    -0.000 C 
BRANCH  22  23
ATOM     23  C   UNL     1      94.587  20.530 108.567  1.00  0.00    -0.000 C 
BRANCH  23  24
ATOM     24  C   UNL     1      94.155  21.394 107.369  1.00  0.00    -0.000 C 
BRANCH  24  25
ATOM     25  C   UNL     1      94.230  20.643 106.032  1.00  0.00    -0.003 C 
ATOM     26  C   UNL     1      93.470  21.389 104.939  1.00  0.00     0.004 C 
ENDBRANCH  24  25
ENDBRANCH  23  24
ENDBRANCH  22  23
ENDBRANCH  21  22
ENDBRANCH  20  21
ENDBRANCH  19  20
ENDBRANCH  18  19
ENDBRANCH  17  18
ENDBRANCH  16  17
ENDBRANCH  15  16
ENDBRANCH   1  15
TORSDOF 22
ENDMDL
MODEL 8
REMARK VINA RESULT:    14.945      4.671      8.133
REMARK INTER + INTRA:          33.807
REMARK INTER:                  34.377
REMARK INTRA:                  -0.570
REMARK UNBOUND:                -0.359
REMARK SMILES CCCCCCCCCCCCCCCCCCCCCCCC(=O)[O-]
REMARK SMILES IDX 13 1 14 2 15 3 16 4 17 5 18 6 19 7 20 8 21 9 22 10 23 11
REMARK SMILES IDX 24 12 25 13 26 14 12 15 11 16 10 17 9 18 8 19 7 20 6 21 5 22
REMARK SMILES IDX 4 23 3 24 2 25 1 26
REMARK H PARENT
REMARK Flexibility Score: inf
ROOT
ATOM      1  C   UNL     1      87.990  21.474 111.372  1.00  0.00     0.000 C 
ENDROOT
BRANCH   1   2
ATOM      2  C   UNL     1      87.592  21.165 109.918  1.00  0.00     0.000 C 
BRANCH   2   3
ATOM      3  C   UNL     1      86.506  20.081 109.821  1.00  0.00     0.000 C 
BRANCH   3   4
ATOM      4  C   UNL     1      85.973  19.902 108.391  1.00  0.00     0.000 C 
BRANCH   4   5
ATOM      5  C   UNL     1      85.837  18.413 108.038  1.00  0.00     0.000 C 
BRANCH   5   6
ATOM      6  C   UNL     1      84.378  17.982 107.805  1.00  0.00     0.000 C 
BRANCH   6   7
ATOM      7  C   UNL     1      84.098  16.484 108.031  1.00  0.00     0.000 C 
BRANCH   7   8
ATOM      8  C   UNL     1      84.551  15.606 106.856  1.00  0.00     0.000 C 
BRANCH   8   9
ATOM      9  C   UNL     1      83.432  14.645 106.426  1.00  0.00     0.000 C 
BRANCH   9  10
ATOM     10  C   UNL     1      82.694  14.005 107.615  1.00  0.00     0.006 C 
BRANCH  10  11
ATOM     11  C   UNL     1      83.580  13.090 108.479  1.00  0.00     0.053 C 
BRANCH  11  12
ATOM     12  C   UNL     1      83.721  13.586 109.885  1.00  0.00     0.041 C 
ATOM     13  O   UNL     1      82.703  13.716 110.616  1.00  0.00    -0.550 OA
ATOM     14  O   UNL     1      84.970  13.941 110.380  1.00  0.00    -0.550 OA
ENDBRANCH  11  12
ENDBRANCH  10  11
ENDBRANCH   9  10
ENDBRANCH   8   9
ENDBRANCH   7   8
ENDBRANCH   6   7
ENDBRANCH   5   6
ENDBRANCH   4   5
ENDBRANCH   3   4
ENDBRANCH   2   3
ENDBRANCH   1   2
BRANCH   1  15
ATOM     15  C   UNL     1      89.512  21.447 111.587  1.00  0.00     0.000 C 
BRANCH  15  16
ATOM     16  C   UNL     1      89.955  22.290 112.796  1.00  0.00     0.000 C 
BRANCH  16  17
ATOM     17  C   UNL     1      90.127  23.777 112.443  1.00  0.00     0.000 C 
BRANCH  17  18
ATOM     18  C   UNL     1      88.799  24.453 112.060  1.00  0.00    -0.000 C 
BRANCH  18  19
ATOM     19  C   UNL     1      88.539  25.741 112.860  1.00  0.00    -0.000 C 
BRANCH  19  20
ATOM     20  C   UNL     1      87.234  26.441 112.439  1.00  0.00    -0.000 C 
BRANCH  20  21
ATOM     21  C   UNL     1      86.293  26.696 113.627  1.00  0.00    -0.000 C 
BRANCH  21  22
ATOM     22  C   UNL     1      84.817  26.804 113.204  1.00  0.00    -0.000 C 
BRANCH  22  23
ATOM     23  C   UNL     1      83.844  26.639 114.386  1.00  0.00    -0.000 C 
BRANCH  23  24
ATOM     24  C   UNL     1      82.578  25.823 114.072  1.00  0.00    -0.000 C 
BRANCH  24  25
ATOM     25  C   UNL     1      82.364  24.653 115.045  1.00  0.00    -0.003 C 
ATOM     26  C   UNL     1      83.193  24.835 116.313  1.00  0.00     0.004 C 
ENDBRANCH  24  25
ENDBRANCH  23  24
ENDBRANCH  22  23
ENDBRANCH  21  22
ENDBRANCH  20  21
ENDBRANCH  19  20
ENDBRANCH  18  19
ENDBRANCH  17  18
ENDBRANCH  16  17
ENDBRANCH  15  16
ENDBRANCH   1  15
TORSDOF 22
ENDMDL
MODEL 9
REMARK VINA RESULT:    15.037      6.564     13.207
REMARK INTER + INTRA:          34.018
REMARK INTER:                  34.984
REMARK INTRA:                  -0.967
REMARK UNBOUND:                -0.359
REMARK SMILES CCCCCCCCCCCCCCCCCCCCCCCC(=O)[O-]
REMARK SMILES IDX 13 1 14 2 15 3 16 4 17 5 18 6 19 7 20 8 21 9 22 10 23 11
REMARK SMILES IDX 24 12 25 13 26 14 12 15 11 16 10 17 9 18 8 19 7 20 6 21 5 22
REMARK SMILES IDX 4 23 3 24 2 25 1 26
REMARK H PARENT
REMARK Flexibility Score: inf
ROOT
ATOM      1  C   UNL     1      87.906  21.424 111.285  1.00  0.00     0.000 C 
ENDROOT
BRANCH   1   2
ATOM      2  C   UNL     1      89.328  21.519 111.863  1.00  0.00     0.000 C 
BRANCH   2   3
ATOM      3  C   UNL     1      89.752  22.968 112.152  1.00  0.00     0.000 C 
BRANCH   3   4
ATOM      4  C   UNL     1      88.574  23.954 112.096  1.00  0.00     0.000 C 
BRANCH   4   5
ATOM      5  C   UNL     1      89.000  25.347 112.583  1.00  0.00     0.000 C 
BRANCH   5   6
ATOM      6  C   UNL     1      87.873  26.390 112.480  1.00  0.00     0.000 C 
BRANCH   6   7
ATOM      7  C   UNL     1      86.862  26.372 113.642  1.00  0.00     0.000 C 
BRANCH   7   8
ATOM      8  C   UNL     1      85.432  26.708 113.197  1.00  0.00     0.000 C 
BRANCH   8   9
ATOM      9  C   UNL     1      84.480  26.760 114.402  1.00  0.00     0.000 C 
BRANCH   9  10
ATOM     10  C   UNL     1      82.995  26.738 114.000  1.00  0.00     0.006 C 
BRANCH  10  11
ATOM     11  C   UNL     1      82.336  25.352 114.125  1.00  0.00     0.053 C 
BRANCH  11  12
ATOM     12  C   UNL     1      82.758  24.625 115.365  1.00  0.00     0.041 C 
ATOM     13  O   UNL     1      83.076  23.408 115.309  1.00  0.00    -0.550 OA
ATOM     14  O   UNL     1      82.767  25.280 116.592  1.00  0.00    -0.550 OA
ENDBRANCH  11  12
ENDBRANCH  10  11
ENDBRANCH   9  10
ENDBRANCH   8   9
ENDBRANCH   7   8
ENDBRANCH   6   7
ENDBRANCH   5   6
ENDBRANCH   4   5
ENDBRANCH   3   4
ENDBRANCH   2   3
ENDBRANCH   1   2
BRANCH   1  15
ATOM     15  C   UNL     1      87.899  21.219 109.761  1.00  0.00     0.000 C 
BRANCH  15  16
ATOM     16  C   UNL     1      86.536  20.738 109.234  1.00  0.00     0.000 C 
BRANCH  16  17
ATOM     17  C   UNL     1      86.465  19.208 109.100  1.00  0.00     0.000 C 
BRANCH  17  18
ATOM     18  C   UNL     1      85.416  18.751 108.071  1.00  0.00    -0.000 C 
BRANCH  18  19
ATOM     19  C   UNL     1      84.657  17.491 108.519  1.00  0.00    -0.000 C 
BRANCH  19  20
ATOM     20  C   UNL     1      84.912  16.289 107.591  1.00  0.00    -0.000 C 
BRANCH  20  21
ATOM     21  C   UNL     1      83.652  15.860 106.824  1.00  0.00    -0.000 C 
BRANCH  21  22
ATOM     22  C   UNL     1      83.507  14.330 106.728  1.00  0.00    -0.000 C 
BRANCH  22  23
ATOM     23  C   UNL     1      83.933  13.609 108.019  1.00  0.00    -0.000 C 
BRANCH  23  24
ATOM     24  C   UNL     1      82.835  13.496 109.091  1.00  0.00    -0.000 C 
BRANCH  24  25
ATOM     25  C   UNL     1      83.330  13.865 110.497  1.00  0.00    -0.003 C 
ATOM     26  C   UNL     1      82.235  13.655 111.539  1.00  0.00     0.004 C 
ENDBRANCH  24  25
ENDBRANCH  23  24
ENDBRANCH  22  23
ENDBRANCH  21  22
ENDBRANCH  20  21
ENDBRANCH  19  20
ENDBRANCH  18  19
ENDBRANCH  17  18
ENDBRANCH  16  17
ENDBRANCH  15  16
ENDBRANCH   1  15
TORSDOF 22
ENDMDL
