MODEL 1
REMARK VINA RESULT:     5.293      0.000      0.000
REMARK INTER + INTRA:           6.233
REMARK INTER:                   6.376
REMARK INTRA:                  -0.143
REMARK UNBOUND:                -0.143
REMARK SMILES O=c1c(O)c(-c2ccc(O)cc2O)oc2cc(O)cc(O)c12
REMARK SMILES IDX 5 1 3 2 2 3 1 4 22 5 20 6 19 7 17 8 16 9 15 10 14 11 6 12
REMARK SMILES IDX 8 13 7 14 9 15 11 16 12 17 10 18 13 20 4 22 21 24 18 26
REMARK H PARENT 10 19 13 21 4 23 21 25 18 27
REMARK Flexibility Score: inf
ROOT
ATOM      1  C   UNL     1       3.770   1.184  17.088  1.00  0.00     0.184 A 
ATOM      2  C   UNL     1       4.291  -0.051  16.671  1.00  0.00     0.208 A 
ATOM      3  C   UNL     1       5.090  -0.098  15.519  1.00  0.00     0.238 A 
ATOM      4  O   UNL     1       5.614  -1.195  15.194  1.00  0.00    -0.285 OA
ATOM      5  C   UNL     1       5.314   1.082  14.768  1.00  0.00     0.111 A 
ATOM      6  C   UNL     1       6.073   1.144  13.559  1.00  0.00     0.134 A 
ATOM      7  C   UNL     1       6.315   2.387  12.960  1.00  0.00     0.093 A 
ATOM      8  C   UNL     1       5.775   3.561  13.489  1.00  0.00     0.123 A 
ATOM      9  C   UNL     1       4.988   3.503  14.637  1.00  0.00     0.094 A 
ATOM     10  C   UNL     1       4.759   2.286  15.280  1.00  0.00     0.146 A 
ATOM     11  O   UNL     1       4.021   2.280  16.384  1.00  0.00    -0.451 OA
ENDROOT
BRANCH   1  12
ATOM     12  C   UNL     1       2.928   1.305  18.296  1.00  0.00     0.063 A 
ATOM     13  C   UNL     1       0.834   2.019  19.304  1.00  0.00     0.047 A 
ATOM     14  C   UNL     1       1.654   1.884  18.182  1.00  0.00     0.020 A 
ATOM     15  C   UNL     1       1.282   1.587  20.558  1.00  0.00     0.119 A 
ATOM     16  C   UNL     1       2.558   1.030  20.686  1.00  0.00     0.093 A 
ATOM     17  C   UNL     1       3.390   0.896  19.564  1.00  0.00     0.130 A 
BRANCH  15  18
ATOM     18  O   UNL     1       0.470   1.713  21.683  1.00  0.00    -0.508 OA
ATOM     19  H   UNL     1       0.471   2.555  22.246  1.00  0.00     0.293 HD
ENDBRANCH  15  18
BRANCH  17  20
ATOM     20  O   UNL     1       4.679   0.384  19.714  1.00  0.00    -0.507 OA
ATOM     21  H   UNL     1       4.918  -0.239  20.477  1.00  0.00     0.293 HD
ENDBRANCH  17  20
ENDBRANCH   1  12
BRANCH   2  22
ATOM     22  O   UNL     1       3.995  -1.213  17.390  1.00  0.00    -0.502 OA
ATOM     23  H   UNL     1       4.466  -2.092  17.218  1.00  0.00     0.293 HD
ENDBRANCH   2  22
BRANCH   6  24
ATOM     24  O   UNL     1       6.584   0.024  12.897  1.00  0.00    -0.507 OA
ATOM     25  H   UNL     1       7.298  -0.587  13.263  1.00  0.00     0.293 HD
ENDBRANCH   6  24
BRANCH   8  26
ATOM     26  O   UNL     1       6.008   4.789  12.875  1.00  0.00    -0.508 OA
ATOM     27  H   UNL     1       6.377   4.851  11.934  1.00  0.00     0.293 HD
ENDBRANCH   8  26
TORSDOF 6
ENDMDL
MODEL 2
REMARK VINA RESULT:     5.831      2.597      5.187
REMARK INTER + INTRA:           6.881
REMARK INTER:                   6.912
REMARK INTRA:                  -0.032
REMARK UNBOUND:                -0.143
REMARK SMILES O=c1c(O)c(-c2ccc(O)cc2O)oc2cc(O)cc(O)c12
REMARK SMILES IDX 5 1 3 2 2 3 1 4 22 5 20 6 19 7 17 8 16 9 15 10 14 11 6 12
REMARK SMILES IDX 8 13 7 14 9 15 11 16 12 17 10 18 13 20 4 22 21 24 18 26
REMARK H PARENT 10 19 13 21 4 23 21 25 18 27
REMARK Flexibility Score: inf
ROOT
ATOM      1  C   UNL     1       3.947   1.717  15.189  1.00  0.00     0.184 A 
ATOM      2  C   UNL     1       3.836   1.342  16.538  1.00  0.00     0.208 A 
ATOM      3  C   UNL     1       4.635   0.296  17.021  1.00  0.00     0.238 A 
ATOM      4  O   UNL     1       4.585   0.015  18.247  1.00  0.00    -0.285 OA
ATOM      5  C   UNL     1       5.497  -0.400  16.137  1.00  0.00     0.111 A 
ATOM      6  C   UNL     1       6.320  -1.506  16.508  1.00  0.00     0.134 A 
ATOM      7  C   UNL     1       7.210  -2.048  15.572  1.00  0.00     0.093 A 
ATOM      8  C   UNL     1       7.261  -1.566  14.262  1.00  0.00     0.123 A 
ATOM      9  C   UNL     1       6.422  -0.524  13.876  1.00  0.00     0.094 A 
ATOM     10  C   UNL     1       5.551   0.063  14.795  1.00  0.00     0.146 A 
ATOM     11  O   UNL     1       4.784   1.069  14.389  1.00  0.00    -0.451 OA
ENDROOT
BRANCH   1  12
ATOM     12  C   UNL     1       3.140   2.815  14.619  1.00  0.00     0.063 A 
ATOM     13  C   UNL     1       0.995   3.947  14.456  1.00  0.00     0.047 A 
ATOM     14  C   UNL     1       1.788   2.924  14.981  1.00  0.00     0.020 A 
ATOM     15  C   UNL     1       1.541   4.866  13.552  1.00  0.00     0.119 A 
ATOM     16  C   UNL     1       2.880   4.751  13.168  1.00  0.00     0.093 A 
ATOM     17  C   UNL     1       3.682   3.724  13.687  1.00  0.00     0.130 A 
BRANCH  15  18
ATOM     18  O   UNL     1       0.760   5.893  13.025  1.00  0.00    -0.508 OA
ATOM     19  H   UNL     1      -0.068   6.227  13.503  1.00  0.00     0.293 HD
ENDBRANCH  15  18
BRANCH  17  20
ATOM     20  O   UNL     1       5.003   3.591  13.258  1.00  0.00    -0.507 OA
ATOM     21  H   UNL     1       5.583   4.399  13.065  1.00  0.00     0.293 HD
ENDBRANCH  17  20
ENDBRANCH   1  12
BRANCH   2  22
ATOM     22  O   UNL     1       2.927   1.998  17.373  1.00  0.00    -0.502 OA
ATOM     23  H   UNL     1       3.212   2.469  18.222  1.00  0.00     0.293 HD
ENDBRANCH   2  22
BRANCH   6  24
ATOM     24  O   UNL     1       6.287  -2.123  17.762  1.00  0.00    -0.507 OA
ATOM     25  H   UNL     1       6.539  -3.082  17.941  1.00  0.00     0.293 HD
ENDBRANCH   6  24
BRANCH   8  26
ATOM     26  O   UNL     1       8.138  -2.124  13.334  1.00  0.00    -0.508 OA
ATOM     27  H   UNL     1       9.071  -1.754  13.196  1.00  0.00     0.293 HD
ENDBRANCH   8  26
TORSDOF 6
ENDMDL
MODEL 3
REMARK VINA RESULT:     5.940      2.565      4.102
REMARK INTER + INTRA:           7.012
REMARK INTER:                   7.419
REMARK INTRA:                  -0.407
REMARK UNBOUND:                -0.143
REMARK SMILES O=c1c(O)c(-c2ccc(O)cc2O)oc2cc(O)cc(O)c12
REMARK SMILES IDX 5 1 3 2 2 3 1 4 22 5 20 6 19 7 17 8 16 9 15 10 14 11 6 12
REMARK SMILES IDX 8 13 7 14 9 15 11 16 12 17 10 18 13 20 4 22 21 24 18 26
REMARK H PARENT 10 19 13 21 4 23 21 25 18 27
REMARK Flexibility Score: inf
ROOT
ATOM      1  C   UNL     1       4.352   1.115  16.476  1.00  0.00     0.184 A 
ATOM      2  C   UNL     1       2.979   0.913  16.267  1.00  0.00     0.208 A 
ATOM      3  C   UNL     1       2.293   1.761  15.385  1.00  0.00     0.238 A 
ATOM      4  O   UNL     1       1.080   1.529  15.145  1.00  0.00    -0.285 OA
ATOM      5  C   UNL     1       2.979   2.835  14.763  1.00  0.00     0.111 A 
ATOM      6  C   UNL     1       2.374   3.784  13.884  1.00  0.00     0.134 A 
ATOM      7  C   UNL     1       3.175   4.740  13.245  1.00  0.00     0.093 A 
ATOM      8  C   UNL     1       4.545   4.821  13.503  1.00  0.00     0.123 A 
ATOM      9  C   UNL     1       5.134   3.935  14.401  1.00  0.00     0.094 A 
ATOM     10  C   UNL     1       4.371   2.946  15.024  1.00  0.00     0.146 A 
ATOM     11  O   UNL     1       4.977   2.108  15.858  1.00  0.00    -0.451 OA
ENDROOT
BRANCH   1  12
ATOM     12  C   UNL     1       5.134   0.253  17.386  1.00  0.00     0.063 A 
ATOM     13  C   UNL     1       5.953  -0.192  19.632  1.00  0.00     0.047 A 
ATOM     14  C   UNL     1       5.217   0.597  18.745  1.00  0.00     0.020 A 
ATOM     15  C   UNL     1       6.626  -1.329  19.169  1.00  0.00     0.119 A 
ATOM     16  C   UNL     1       6.569  -1.666  17.814  1.00  0.00     0.093 A 
ATOM     17  C   UNL     1       5.836  -0.876  16.915  1.00  0.00     0.130 A 
BRANCH  15  18
ATOM     18  O   UNL     1       7.359  -2.125  20.046  1.00  0.00    -0.508 OA
ATOM     19  H   UNL     1       6.956  -2.946  20.480  1.00  0.00     0.293 HD
ENDBRANCH  15  18
BRANCH  17  20
ATOM     20  O   UNL     1       5.827  -1.196  15.558  1.00  0.00    -0.507 OA
ATOM     21  H   UNL     1       5.867  -0.479  14.842  1.00  0.00     0.293 HD
ENDBRANCH  17  20
ENDBRANCH   1  12
BRANCH   2  22
ATOM     22  O   UNL     1       2.311  -0.108  16.948  1.00  0.00    -0.502 OA
ATOM     23  H   UNL     1       1.316  -0.266  16.848  1.00  0.00     0.293 HD
ENDBRANCH   2  22
BRANCH   6  24
ATOM     24  O   UNL     1       1.002   3.849  13.624  1.00  0.00    -0.507 OA
ATOM     25  H   UNL     1       0.543   3.421  12.835  1.00  0.00     0.293 HD
ENDBRANCH   6  24
BRANCH   8  26
ATOM     26  O   UNL     1       5.329   5.787  12.875  1.00  0.00    -0.508 OA
ATOM     27  H   UNL     1       5.088   6.771  12.909  1.00  0.00     0.293 HD
ENDBRANCH   8  26
TORSDOF 6
ENDMDL
MODEL 4
REMARK VINA RESULT:     6.323      0.661      1.459
REMARK INTER + INTRA:           7.474
REMARK INTER:                   7.797
REMARK INTRA:                  -0.323
REMARK UNBOUND:                -0.143
REMARK SMILES O=c1c(O)c(-c2ccc(O)cc2O)oc2cc(O)cc(O)c12
REMARK SMILES IDX 5 1 3 2 2 3 1 4 22 5 20 6 19 7 17 8 16 9 15 10 14 11 6 12
REMARK SMILES IDX 8 13 7 14 9 15 11 16 12 17 10 18 13 20 4 22 21 24 18 26
REMARK H PARENT 10 19 13 21 4 23 21 25 18 27
REMARK Flexibility Score: inf
ROOT
ATOM      1  C   UNL     1       3.838   1.222  17.129  1.00  0.00     0.184 A 
ATOM      2  C   UNL     1       4.394  -0.003  16.729  1.00  0.00     0.208 A 
ATOM      3  C   UNL     1       5.197  -0.042  15.580  1.00  0.00     0.238 A 
ATOM      4  O   UNL     1       5.753  -1.128  15.269  1.00  0.00    -0.285 OA
ATOM      5  C   UNL     1       5.391   1.134  14.814  1.00  0.00     0.111 A 
ATOM      6  C   UNL     1       6.151   1.201  13.606  1.00  0.00     0.134 A 
ATOM      7  C   UNL     1       6.360   2.443  12.992  1.00  0.00     0.093 A 
ATOM      8  C   UNL     1       5.786   3.608  13.505  1.00  0.00     0.123 A 
ATOM      9  C   UNL     1       4.998   3.543  14.651  1.00  0.00     0.094 A 
ATOM     10  C   UNL     1       4.801   2.328  15.309  1.00  0.00     0.146 A 
ATOM     11  O   UNL     1       4.060   2.316  16.411  1.00  0.00    -0.451 OA
ENDROOT
BRANCH   1  12
ATOM     12  C   UNL     1       2.990   1.335  18.333  1.00  0.00     0.063 A 
ATOM     13  C   UNL     1       2.752   1.068  20.738  1.00  0.00     0.047 A 
ATOM     14  C   UNL     1       3.528   0.979  19.580  1.00  0.00     0.020 A 
ATOM     15  C   UNL     1       1.423   1.501  20.662  1.00  0.00     0.119 A 
ATOM     16  C   UNL     1       0.871   1.835  19.422  1.00  0.00     0.093 A 
ATOM     17  C   UNL     1       1.642   1.744  18.253  1.00  0.00     0.130 A 
BRANCH  15  18
ATOM     18  O   UNL     1       0.641   1.596  21.811  1.00  0.00    -0.508 OA
ATOM     19  H   UNL     1       0.844   1.047  22.637  1.00  0.00     0.293 HD
ENDBRANCH  15  18
BRANCH  17  20
ATOM     20  O   UNL     1       1.065   2.033  17.017  1.00  0.00    -0.507 OA
ATOM     21  H   UNL     1       0.454   2.832  16.889  1.00  0.00     0.293 HD
ENDBRANCH  17  20
ENDBRANCH   1  12
BRANCH   2  22
ATOM     22  O   UNL     1       4.129  -1.163  17.462  1.00  0.00    -0.502 OA
ATOM     23  H   UNL     1       3.204  -1.572  17.515  1.00  0.00     0.293 HD
ENDBRANCH   2  22
BRANCH   6  24
ATOM     24  O   UNL     1       6.695   0.088  12.959  1.00  0.00    -0.507 OA
ATOM     25  H   UNL     1       7.259  -0.619  13.404  1.00  0.00     0.293 HD
ENDBRANCH   6  24
BRANCH   8  26
ATOM     26  O   UNL     1       5.987   4.835  12.876  1.00  0.00    -0.508 OA
ATOM     27  H   UNL     1       5.335   5.190  12.186  1.00  0.00     0.293 HD
ENDBRANCH   8  26
TORSDOF 6
ENDMDL
MODEL 5
REMARK VINA RESULT:     7.014      2.289      6.684
REMARK INTER + INTRA:           8.306
REMARK INTER:                   8.544
REMARK INTRA:                  -0.238
REMARK UNBOUND:                -0.143
REMARK SMILES O=c1c(O)c(-c2ccc(O)cc2O)oc2cc(O)cc(O)c12
REMARK SMILES IDX 5 1 3 2 2 3 1 4 22 5 20 6 19 7 17 8 16 9 15 10 14 11 6 12
REMARK SMILES IDX 8 13 7 14 9 15 11 16 12 17 10 18 13 20 4 22 21 24 18 26
REMARK H PARENT 10 19 13 21 4 23 21 25 18 27
REMARK Flexibility Score: inf
ROOT
ATOM      1  C   UNL     1       4.182   0.062  15.487  1.00  0.00     0.184 A 
ATOM      2  C   UNL     1       2.913   0.094  14.888  1.00  0.00     0.208 A 
ATOM      3  C   UNL     1       1.837   0.640  15.604  1.00  0.00     0.238 A 
ATOM      4  O   UNL     1       0.718   0.733  15.033  1.00  0.00    -0.285 OA
ATOM      5  C   UNL     1       2.032   1.098  16.930  1.00  0.00     0.111 A 
ATOM      6  C   UNL     1       1.003   1.631  17.765  1.00  0.00     0.134 A 
ATOM      7  C   UNL     1       1.335   2.150  19.023  1.00  0.00     0.093 A 
ATOM      8  C   UNL     1       2.646   2.099  19.501  1.00  0.00     0.123 A 
ATOM      9  C   UNL     1       3.647   1.532  18.716  1.00  0.00     0.094 A 
ATOM     10  C   UNL     1       3.355   1.040  17.442  1.00  0.00     0.146 A 
ATOM     11  O   UNL     1       4.344   0.527  16.719  1.00  0.00    -0.451 OA
ENDROOT
BRANCH   1  12
ATOM     12  C   UNL     1       5.358  -0.491  14.786  1.00  0.00     0.063 A 
ATOM     13  C   UNL     1       7.159  -2.124  14.722  1.00  0.00     0.047 A 
ATOM     14  C   UNL     1       6.039  -1.579  15.355  1.00  0.00     0.020 A 
ATOM     15  C   UNL     1       7.620  -1.579  13.518  1.00  0.00     0.119 A 
ATOM     16  C   UNL     1       6.962  -0.481  12.955  1.00  0.00     0.093 A 
ATOM     17  C   UNL     1       5.840   0.075  13.588  1.00  0.00     0.130 A 
BRANCH  15  18
ATOM     18  O   UNL     1       8.733  -2.117  12.876  1.00  0.00    -0.508 OA
ATOM     19  H   UNL     1       9.022  -1.799  11.959  1.00  0.00     0.293 HD
ENDBRANCH  15  18
BRANCH  17  20
ATOM     20  O   UNL     1       5.223   1.201  13.042  1.00  0.00    -0.507 OA
ATOM     21  H   UNL     1       4.268   1.448  13.274  1.00  0.00     0.293 HD
ENDBRANCH  17  20
ENDBRANCH   1  12
BRANCH   2  22
ATOM     22  O   UNL     1       2.732  -0.430  13.605  1.00  0.00    -0.502 OA
ATOM     23  H   UNL     1       2.647   0.159  12.786  1.00  0.00     0.293 HD
ENDBRANCH   2  22
BRANCH   6  24
ATOM     24  O   UNL     1      -0.353   1.650  17.423  1.00  0.00    -0.507 OA
ATOM     25  H   UNL     1      -1.072   1.112  17.881  1.00  0.00     0.293 HD
ENDBRANCH   6  24
BRANCH   8  26
ATOM     26  O   UNL     1       2.963   2.603  20.761  1.00  0.00    -0.508 OA
ATOM     27  H   UNL     1       2.316   2.533  21.538  1.00  0.00     0.293 HD
ENDBRANCH   8  26
TORSDOF 6
ENDMDL
