MODEL 1
REMARK VINA RESULT:    -3.839      0.000      0.000
REMARK INTER + INTRA:          -5.658
REMARK INTER:                  -4.737
REMARK INTRA:                  -0.921
REMARK UNBOUND:                -0.921
REMARK SMILES C=CC(=C)CCC=C(C)C
REMARK SMILES IDX 5 1 6 2 7 3 9 4 8 5 10 6 3 7 4 8 2 9 1 10
REMARK H PARENT
REMARK Flexibility Score: inf
ROOT
ATOM      1  C   UNL     1      32.238   7.660  32.980  1.00  0.00     0.039 C 
ENDROOT
BRANCH   1   2
ATOM      2  C   UNL     1      31.091   7.330  33.947  1.00  0.00     0.032 C 
BRANCH   2   3
ATOM      3  C   UNL     1      31.372   7.807  35.351  1.00  0.00    -0.028 C 
ATOM      4  C   UNL     1      29.702   9.670  35.229  1.00  0.00     0.039 C 
ATOM      5  C   UNL     1      30.773   8.870  35.932  1.00  0.00    -0.080 C 
ATOM      6  C   UNL     1      31.192   9.254  37.328  1.00  0.00     0.039 C 
ENDBRANCH   2   3
ENDBRANCH   1   2
BRANCH   1   7
ATOM      7  C   UNL     1      32.148   9.079  32.451  1.00  0.00    -0.055 C 
ATOM      8  C   UNL     1      31.199   9.371  31.555  1.00  0.00     0.012 C 
BRANCH   7   9
ATOM      9  C   UNL     1      33.095  10.154  32.855  1.00  0.00    -0.005 C 
ATOM     10  C   UNL     1      32.800  11.142  33.701  1.00  0.00     0.009 C 
ENDBRANCH   7   9
ENDBRANCH   1   7
TORSDOF 4
ENDMDL
MODEL 2
REMARK VINA RESULT:    -3.832      1.061      4.160
REMARK INTER + INTRA:          -5.650
REMARK INTER:                  -5.178
REMARK INTRA:                  -0.472
REMARK UNBOUND:                -0.921
REMARK SMILES C=CC(=C)CCC=C(C)C
REMARK SMILES IDX 5 1 6 2 7 3 9 4 8 5 10 6 3 7 4 8 2 9 1 10
REMARK H PARENT
REMARK Flexibility Score: inf
ROOT
ATOM      1  C   UNL     1      30.810   8.252  34.411  1.00  0.00     0.039 C 
ENDROOT
BRANCH   1   2
ATOM      2  C   UNL     1      31.945   7.969  33.414  1.00  0.00     0.032 C 
BRANCH   2   3
ATOM      3  C   UNL     1      31.825   8.801  32.160  1.00  0.00    -0.028 C 
ATOM      4  C   UNL     1      33.125  10.720  33.108  1.00  0.00     0.039 C 
ATOM      5  C   UNL     1      32.329  10.046  32.016  1.00  0.00    -0.080 C 
ATOM      6  C   UNL     1      32.088  10.771  30.716  1.00  0.00     0.039 C 
ENDBRANCH   2   3
ENDBRANCH   1   2
BRANCH   1   7
ATOM      7  C   UNL     1      31.253   8.057  35.849  1.00  0.00    -0.055 C 
ATOM      8  C   UNL     1      31.609   6.832  36.251  1.00  0.00     0.012 C 
BRANCH   7   9
ATOM      9  C   UNL     1      31.270   9.162  36.846  1.00  0.00    -0.005 C 
ATOM     10  C   UNL     1      31.849  10.347  36.651  1.00  0.00     0.009 C 
ENDBRANCH   7   9
ENDBRANCH   1   7
TORSDOF 4
ENDMDL
MODEL 3
REMARK VINA RESULT:    -3.765      1.264      2.241
REMARK INTER + INTRA:          -5.566
REMARK INTER:                  -5.094
REMARK INTRA:                  -0.473
REMARK UNBOUND:                -0.921
REMARK SMILES C=CC(=C)CCC=C(C)C
REMARK SMILES IDX 5 1 6 2 7 3 9 4 8 5 10 6 3 7 4 8 2 9 1 10
REMARK H PARENT
REMARK Flexibility Score: inf
ROOT
ATOM      1  C   UNL     1      32.739   9.207  32.643  1.00  0.00     0.039 C 
ENDROOT
BRANCH   1   2
ATOM      2  C   UNL     1      31.344   8.776  33.118  1.00  0.00     0.032 C 
BRANCH   2   3
ATOM      3  C   UNL     1      31.403   7.653  34.125  1.00  0.00    -0.028 C 
ATOM      4  C   UNL     1      31.043   9.169  36.085  1.00  0.00     0.039 C 
ATOM      5  C   UNL     1      31.293   7.817  35.461  1.00  0.00    -0.080 C 
ATOM      6  C   UNL     1      31.420   6.603  36.345  1.00  0.00     0.039 C 
ENDBRANCH   2   3
ENDBRANCH   1   2
BRANCH   1   7
ATOM      7  C   UNL     1      32.903  10.716  32.646  1.00  0.00    -0.055 C 
ATOM      8  C   UNL     1      32.808  11.369  33.810  1.00  0.00     0.012 C 
BRANCH   7   9
ATOM      9  C   UNL     1      33.125  11.508  31.406  1.00  0.00    -0.005 C 
ATOM     10  C   UNL     1      32.381  11.410  30.304  1.00  0.00     0.009 C 
ENDBRANCH   7   9
ENDBRANCH   1   7
TORSDOF 4
ENDMDL
MODEL 4
REMARK VINA RESULT:    -3.701      1.984      3.814
REMARK INTER + INTRA:          -5.488
REMARK INTER:                  -4.567
REMARK INTRA:                  -0.920
REMARK UNBOUND:                -0.921
REMARK SMILES C=CC(=C)CCC=C(C)C
REMARK SMILES IDX 5 1 6 2 7 3 9 4 8 5 10 6 3 7 4 8 2 9 1 10
REMARK H PARENT
REMARK Flexibility Score: inf
ROOT
ATOM      1  C   UNL     1      33.116  11.774  31.404  1.00  0.00     0.039 C 
ENDROOT
BRANCH   1   2
ATOM      2  C   UNL     1      32.979  11.146  32.799  1.00  0.00     0.032 C 
BRANCH   2   3
ATOM      3  C   UNL     1      32.986   9.638  32.751  1.00  0.00    -0.028 C 
ATOM      4  C   UNL     1      30.580   9.440  33.419  1.00  0.00     0.039 C 
ATOM      5  C   UNL     1      31.923   8.858  33.048  1.00  0.00    -0.080 C 
ATOM      6  C   UNL     1      32.097   7.361  32.999  1.00  0.00     0.039 C 
ENDBRANCH   2   3
ENDBRANCH   1   2
BRANCH   1   7
ATOM      7  C   UNL     1      31.876  11.558  30.556  1.00  0.00    -0.055 C 
ATOM      8  C   UNL     1      30.750  12.198  30.892  1.00  0.00     0.012 C 
BRANCH   7   9
ATOM      9  C   UNL     1      31.845  10.635  29.390  1.00  0.00    -0.005 C 
ATOM     10  C   UNL     1      31.234   9.450  29.380  1.00  0.00     0.009 C 
ENDBRANCH   7   9
ENDBRANCH   1   7
TORSDOF 4
ENDMDL
MODEL 5
REMARK VINA RESULT:    -3.665      2.394      5.626
REMARK INTER + INTRA:          -5.444
REMARK INTER:                  -4.829
REMARK INTRA:                  -0.615
REMARK UNBOUND:                -0.921
REMARK SMILES C=CC(=C)CCC=C(C)C
REMARK SMILES IDX 5 1 6 2 7 3 9 4 8 5 10 6 3 7 4 8 2 9 1 10
REMARK H PARENT
REMARK Flexibility Score: inf
ROOT
ATOM      1  C   UNL     1      33.125  11.621  31.446  1.00  0.00     0.039 C 
ENDROOT
BRANCH   1   2
ATOM      2  C   UNL     1      31.919  11.642  30.494  1.00  0.00     0.032 C 
BRANCH   2   3
ATOM      3  C   UNL     1      32.233  11.013  29.159  1.00  0.00    -0.028 C 
ATOM      4  C   UNL     1      30.358   9.360  29.309  1.00  0.00     0.039 C 
ATOM      5  C   UNL     1      31.556   9.973  28.624  1.00  0.00    -0.080 C 
ATOM      6  C   UNL     1      32.018   9.422  27.299  1.00  0.00     0.039 C 
ENDBRANCH   2   3
ENDBRANCH   1   2
BRANCH   1   7
ATOM      7  C   UNL     1      32.872  10.759  32.669  1.00  0.00    -0.055 C 
ATOM      8  C   UNL     1      32.787  11.351  33.865  1.00  0.00     0.012 C 
BRANCH   7   9
ATOM      9  C   UNL     1      32.753   9.277  32.603  1.00  0.00    -0.005 C 
ATOM     10  C   UNL     1      31.603   8.607  32.674  1.00  0.00     0.009 C 
ENDBRANCH   7   9
ENDBRANCH   1   7
TORSDOF 4
ENDMDL
MODEL 6
REMARK VINA RESULT:    -3.658      0.936      2.504
REMARK INTER + INTRA:          -5.435
REMARK INTER:                  -4.571
REMARK INTRA:                  -0.864
REMARK UNBOUND:                -0.921
REMARK SMILES C=CC(=C)CCC=C(C)C
REMARK SMILES IDX 5 1 6 2 7 3 9 4 8 5 10 6 3 7 4 8 2 9 1 10
REMARK H PARENT
REMARK Flexibility Score: inf
ROOT
ATOM      1  C   UNL     1      33.125  10.541  32.706  1.00  0.00     0.039 C 
ENDROOT
BRANCH   1   2
ATOM      2  C   UNL     1      32.366  11.413  33.718  1.00  0.00     0.032 C 
BRANCH   2   3
ATOM      3  C   UNL     1      32.284  10.769  35.081  1.00  0.00    -0.028 C 
ATOM      4  C   UNL     1      29.819  10.360  34.923  1.00  0.00     0.039 C 
ATOM      5  C   UNL     1      31.144  10.313  35.644  1.00  0.00    -0.080 C 
ATOM      6  C   UNL     1      31.213   9.734  37.035  1.00  0.00     0.039 C 
ENDBRANCH   2   3
ENDBRANCH   1   2
BRANCH   1   7
ATOM      7  C   UNL     1      32.299   9.355  32.243  1.00  0.00    -0.055 C 
ATOM      8  C   UNL     1      31.419   9.535  31.252  1.00  0.00     0.012 C 
BRANCH   7   9
ATOM      9  C   UNL     1      32.396   8.009  32.869  1.00  0.00    -0.005 C 
ATOM     10  C   UNL     1      31.355   7.312  33.327  1.00  0.00     0.009 C 
ENDBRANCH   7   9
ENDBRANCH   1   7
TORSDOF 4
ENDMDL
MODEL 7
REMARK VINA RESULT:    -3.613      1.201      4.044
REMARK INTER + INTRA:          -5.379
REMARK INTER:                  -4.628
REMARK INTRA:                  -0.751
REMARK UNBOUND:                -0.921
REMARK SMILES C=CC(=C)CCC=C(C)C
REMARK SMILES IDX 5 1 6 2 7 3 9 4 8 5 10 6 3 7 4 8 2 9 1 10
REMARK H PARENT
REMARK Flexibility Score: inf
ROOT
ATOM      1  C   UNL     1      32.275  11.442  33.750  1.00  0.00     0.039 C 
ENDROOT
BRANCH   1   2
ATOM      2  C   UNL     1      33.001  10.282  33.051  1.00  0.00     0.032 C 
BRANCH   2   3
ATOM      3  C   UNL     1      32.135   9.606  32.016  1.00  0.00    -0.028 C 
ATOM      4  C   UNL     1      31.868   7.513  33.365  1.00  0.00     0.039 C 
ATOM      5  C   UNL     1      31.638   8.355  32.133  1.00  0.00    -0.080 C 
ATOM      6  C   UNL     1      30.826   7.797  30.993  1.00  0.00     0.039 C 
ENDBRANCH   2   3
ENDBRANCH   1   2
BRANCH   1   7
ATOM      7  C   UNL     1      31.312  10.954  34.816  1.00  0.00    -0.055 C 
ATOM      8  C   UNL     1      30.000  10.986  34.558  1.00  0.00     0.012 C 
BRANCH   7   9
ATOM      9  C   UNL     1      31.760  10.476  36.152  1.00  0.00    -0.005 C 
ATOM     10  C   UNL     1      31.403   9.313  36.698  1.00  0.00     0.009 C 
ENDBRANCH   7   9
ENDBRANCH   1   7
TORSDOF 4
ENDMDL
MODEL 8
REMARK VINA RESULT:    -3.579      1.280      4.485
REMARK INTER + INTRA:          -5.338
REMARK INTER:                  -4.999
REMARK INTRA:                  -0.338
REMARK UNBOUND:                -0.921
REMARK SMILES C=CC(=C)CCC=C(C)C
REMARK SMILES IDX 5 1 6 2 7 3 9 4 8 5 10 6 3 7 4 8 2 9 1 10
REMARK H PARENT
REMARK Flexibility Score: inf
ROOT
ATOM      1  C   UNL     1      30.857   8.326  33.851  1.00  0.00     0.039 C 
ENDROOT
BRANCH   1   2
ATOM      2  C   UNL     1      32.108   8.266  32.961  1.00  0.00     0.032 C 
BRANCH   2   3
ATOM      3  C   UNL     1      32.685   9.634  32.691  1.00  0.00    -0.028 C 
ATOM      4  C   UNL     1      31.453   9.910  30.529  1.00  0.00     0.039 C 
ATOM      5  C   UNL     1      32.418  10.374  31.593  1.00  0.00    -0.080 C 
ATOM      6  C   UNL     1      33.107  11.706  31.441  1.00  0.00     0.039 C 
ENDBRANCH   2   3
ENDBRANCH   1   2
BRANCH   1   7
ATOM      7  C   UNL     1      31.202   8.247  35.327  1.00  0.00    -0.055 C 
ATOM      8  C   UNL     1      31.180   9.371  36.052  1.00  0.00     0.012 C 
BRANCH   7   9
ATOM      9  C   UNL     1      31.603   6.980  35.996  1.00  0.00    -0.005 C 
ATOM     10  C   UNL     1      30.785   6.217  36.722  1.00  0.00     0.009 C 
ENDBRANCH   7   9
ENDBRANCH   1   7
TORSDOF 4
ENDMDL
MODEL 9
REMARK VINA RESULT:    -3.447      1.605      4.850
REMARK INTER + INTRA:          -5.174
REMARK INTER:                  -4.634
REMARK INTRA:                  -0.541
REMARK UNBOUND:                -0.921
REMARK SMILES C=CC(=C)CCC=C(C)C
REMARK SMILES IDX 5 1 6 2 7 3 9 4 8 5 10 6 3 7 4 8 2 9 1 10
REMARK H PARENT
REMARK Flexibility Score: inf
ROOT
ATOM      1  C   UNL     1      32.490  11.155  34.159  1.00  0.00     0.039 C 
ENDROOT
BRANCH   1   2
ATOM      2  C   UNL     1      33.125  10.469  32.940  1.00  0.00     0.032 C 
BRANCH   2   3
ATOM      3  C   UNL     1      32.845  11.211  31.656  1.00  0.00    -0.028 C 
ATOM      4  C   UNL     1      31.326   9.431  30.764  1.00  0.00     0.039 C 
ATOM      5  C   UNL     1      32.058  10.747  30.660  1.00  0.00    -0.080 C 
ATOM      6  C   UNL     1      31.911  11.583  29.415  1.00  0.00     0.039 C 
ENDBRANCH   2   3
ENDBRANCH   1   2
BRANCH   1   7
ATOM      7  C   UNL     1      31.673  10.189  34.997  1.00  0.00    -0.055 C 
ATOM      8  C   UNL     1      31.614  10.378  36.320  1.00  0.00     0.012 C 
BRANCH   7   9
ATOM      9  C   UNL     1      30.965   9.016  34.417  1.00  0.00    -0.005 C 
ATOM     10  C   UNL     1      31.255   7.745  34.695  1.00  0.00     0.009 C 
ENDBRANCH   7   9
ENDBRANCH   1   7
TORSDOF 4
ENDMDL
