MODEL 1
REMARK VINA RESULT:    -2.971      0.000      0.000
REMARK INTER + INTRA:          -9.939
REMARK INTER:                  -6.445
REMARK INTRA:                  -3.494
REMARK UNBOUND:                -3.494
REMARK SMILES CCCCCCCCCCCCCCCCCCCCCC(=O)[O-]
REMARK SMILES IDX 12 1 11 2 10 3 9 4 8 5 7 6 6 7 5 8 4 9 3 10 2 11 1 12 13 13
REMARK SMILES IDX 14 14 15 15 16 16 17 17 18 18 19 19 20 20 21 21 22 22 23 23
REMARK SMILES IDX 24 24
REMARK H PARENT
REMARK Flexibility Score: inf
ROOT
ATOM      1  C   UNL     1      30.940   8.761  22.498  1.00  0.00     0.000 C 
ENDROOT
BRANCH   1   2
ATOM      2  C   UNL     1      31.675   9.927  23.177  1.00  0.00     0.000 C 
BRANCH   2   3
ATOM      3  C   UNL     1      31.972  11.088  22.211  1.00  0.00     0.000 C 
BRANCH   3   4
ATOM      4  C   UNL     1      33.146  11.964  22.699  1.00  0.00    -0.000 C 
BRANCH   4   5
ATOM      5  C   UNL     1      34.240  11.176  23.439  1.00  0.00    -0.000 C 
BRANCH   5   6
ATOM      6  C   UNL     1      35.632  11.343  22.807  1.00  0.00    -0.000 C 
BRANCH   6   7
ATOM      7  C   UNL     1      36.239   9.994  22.369  1.00  0.00    -0.000 C 
BRANCH   7   8
ATOM      8  C   UNL     1      35.345   9.207  21.394  1.00  0.00    -0.000 C 
BRANCH   8   9
ATOM      9  C   UNL     1      35.288   9.835  19.996  1.00  0.00    -0.000 C 
BRANCH   9  10
ATOM     10  C   UNL     1      33.865   9.785  19.428  1.00  0.00    -0.000 C 
BRANCH  10  11
ATOM     11  C   UNL     1      33.831   9.020  18.099  1.00  0.00    -0.003 C 
ATOM     12  C   UNL     1      34.662   7.742  18.177  1.00  0.00     0.004 C 
ENDBRANCH  10  11
ENDBRANCH   9  10
ENDBRANCH   8   9
ENDBRANCH   7   8
ENDBRANCH   6   7
ENDBRANCH   5   6
ENDBRANCH   4   5
ENDBRANCH   3   4
ENDBRANCH   2   3
ENDBRANCH   1   2
BRANCH   1  13
ATOM     13  C   UNL     1      31.849   7.966  21.544  1.00  0.00     0.000 C 
BRANCH  13  14
ATOM     14  C   UNL     1      31.068   6.963  20.679  1.00  0.00     0.000 C 
BRANCH  14  15
ATOM     15  C   UNL     1      31.980   5.949  19.972  1.00  0.00     0.000 C 
BRANCH  15  16
ATOM     16  C   UNL     1      32.741   5.090  20.994  1.00  0.00     0.000 C 
BRANCH  16  17
ATOM     17  C   UNL     1      34.195   4.816  20.576  1.00  0.00     0.000 C 
BRANCH  17  18
ATOM     18  C   UNL     1      35.200   5.739  21.288  1.00  0.00     0.000 C 
BRANCH  18  19
ATOM     19  C   UNL     1      36.611   5.670  20.678  1.00  0.00     0.000 C 
BRANCH  19  20
ATOM     20  C   UNL     1      37.757   6.079  21.627  1.00  0.00     0.006 C 
BRANCH  20  21
ATOM     21  C   UNL     1      37.307   6.448  23.049  1.00  0.00     0.053 C 
BRANCH  21  22
ATOM     22  C   UNL     1      38.413   7.072  23.844  1.00  0.00     0.041 C 
ATOM     23  O   UNL     1      38.713   6.614  24.978  1.00  0.00    -0.550 OA
ATOM     24  O   UNL     1      39.088   8.182  23.349  1.00  0.00    -0.550 OA
ENDBRANCH  21  22
ENDBRANCH  20  21
ENDBRANCH  19  20
ENDBRANCH  18  19
ENDBRANCH  17  18
ENDBRANCH  16  17
ENDBRANCH  15  16
ENDBRANCH  14  15
ENDBRANCH  13  14
ENDBRANCH   1  13
TORSDOF 20
ENDMDL
MODEL 2
REMARK VINA RESULT:    -2.959      2.663      6.029
REMARK INTER + INTRA:          -9.913
REMARK INTER:                  -5.877
REMARK INTRA:                  -4.036
REMARK UNBOUND:                -3.494
REMARK SMILES CCCCCCCCCCCCCCCCCCCCCC(=O)[O-]
REMARK SMILES IDX 12 1 11 2 10 3 9 4 8 5 7 6 6 7 5 8 4 9 3 10 2 11 1 12 13 13
REMARK SMILES IDX 14 14 15 15 16 16 17 17 18 18 19 19 20 20 21 21 22 22 23 23
REMARK SMILES IDX 24 24
REMARK H PARENT
REMARK Flexibility Score: inf
ROOT
ATOM      1  C   UNL     1      37.957  10.205  22.298  1.00  0.00     0.000 C 
ENDROOT
BRANCH   1   2
ATOM      2  C   UNL     1      38.543   8.785  22.346  1.00  0.00     0.000 C 
BRANCH   2   3
ATOM      3  C   UNL     1      37.913   7.918  23.450  1.00  0.00     0.000 C 
BRANCH   3   4
ATOM      4  C   UNL     1      37.397   6.568  22.907  1.00  0.00    -0.000 C 
BRANCH   4   5
ATOM      5  C   UNL     1      37.216   6.545  21.380  1.00  0.00    -0.000 C 
BRANCH   5   6
ATOM      6  C   UNL     1      35.738   6.532  20.951  1.00  0.00    -0.000 C 
BRANCH   6   7
ATOM      7  C   UNL     1      35.114   7.943  20.971  1.00  0.00    -0.000 C 
BRANCH   7   8
ATOM      8  C   UNL     1      34.946   8.559  19.571  1.00  0.00    -0.000 C 
BRANCH   8   9
ATOM      9  C   UNL     1      35.708   9.880  19.405  1.00  0.00    -0.000 C 
BRANCH   9  10
ATOM     10  C   UNL     1      36.718   9.792  18.255  1.00  0.00    -0.000 C 
BRANCH  10  11
ATOM     11  C   UNL     1      38.002   9.083  18.704  1.00  0.00    -0.003 C 
ATOM     12  C   UNL     1      38.173   7.746  17.988  1.00  0.00     0.004 C 
ENDBRANCH  10  11
ENDBRANCH   9  10
ENDBRANCH   8   9
ENDBRANCH   7   8
ENDBRANCH   6   7
ENDBRANCH   5   6
ENDBRANCH   4   5
ENDBRANCH   3   4
ENDBRANCH   2   3
ENDBRANCH   1   2
BRANCH   1  13
ATOM     13  C   UNL     1      36.601  10.309  23.018  1.00  0.00     0.000 C 
BRANCH  13  14
ATOM     14  C   UNL     1      36.058  11.747  23.055  1.00  0.00     0.000 C 
BRANCH  14  15
ATOM     15  C   UNL     1      34.528  11.804  23.180  1.00  0.00     0.000 C 
BRANCH  15  16
ATOM     16  C   UNL     1      33.874  12.058  21.813  1.00  0.00     0.000 C 
BRANCH  16  17
ATOM     17  C   UNL     1      32.786  11.027  21.473  1.00  0.00     0.000 C 
BRANCH  17  18
ATOM     18  C   UNL     1      32.595   9.979  22.583  1.00  0.00     0.000 C 
BRANCH  18  19
ATOM     19  C   UNL     1      31.145   9.472  22.684  1.00  0.00     0.000 C 
BRANCH  19  20
ATOM     20  C   UNL     1      30.941   7.988  22.309  1.00  0.00     0.006 C 
BRANCH  20  21
ATOM     21  C   UNL     1      31.379   7.625  20.882  1.00  0.00     0.053 C 
BRANCH  21  22
ATOM     22  C   UNL     1      31.946   6.240  20.804  1.00  0.00     0.041 C 
ATOM     23  O   UNL     1      31.942   5.497  21.821  1.00  0.00    -0.550 OA
ATOM     24  O   UNL     1      32.511   5.783  19.619  1.00  0.00    -0.550 OA
ENDBRANCH  21  22
ENDBRANCH  20  21
ENDBRANCH  19  20
ENDBRANCH  18  19
ENDBRANCH  17  18
ENDBRANCH  16  17
ENDBRANCH  15  16
ENDBRANCH  14  15
ENDBRANCH  13  14
ENDBRANCH   1  13
TORSDOF 20
ENDMDL
MODEL 3
REMARK VINA RESULT:    -2.858      1.515      4.410
REMARK INTER + INTRA:          -9.694
REMARK INTER:                  -6.089
REMARK INTRA:                  -3.605
REMARK UNBOUND:                -3.494
REMARK SMILES CCCCCCCCCCCCCCCCCCCCCC(=O)[O-]
REMARK SMILES IDX 12 1 11 2 10 3 9 4 8 5 7 6 6 7 5 8 4 9 3 10 2 11 1 12 13 13
REMARK SMILES IDX 14 14 15 15 16 16 17 17 18 18 19 19 20 20 21 21 22 22 23 23
REMARK SMILES IDX 24 24
REMARK H PARENT
REMARK Flexibility Score: inf
ROOT
ATOM      1  C   UNL     1      32.199   8.599  21.565  1.00  0.00     0.000 C 
ENDROOT
BRANCH   1   2
ATOM      2  C   UNL     1      31.610   7.267  21.075  1.00  0.00     0.000 C 
BRANCH   2   3
ATOM      3  C   UNL     1      32.493   6.577  20.019  1.00  0.00     0.000 C 
BRANCH   3   4
ATOM      4  C   UNL     1      33.997   6.798  20.285  1.00  0.00    -0.000 C 
BRANCH   4   5
ATOM      5  C   UNL     1      34.704   7.621  19.195  1.00  0.00    -0.000 C 
BRANCH   5   6
ATOM      6  C   UNL     1      33.760   8.046  18.057  1.00  0.00    -0.000 C 
BRANCH   6   7
ATOM      7  C   UNL     1      33.545   9.573  18.018  1.00  0.00    -0.000 C 
BRANCH   7   8
ATOM      8  C   UNL     1      34.155  10.310  19.223  1.00  0.00    -0.000 C 
BRANCH   8   9
ATOM      9  C   UNL     1      34.998  11.525  18.816  1.00  0.00    -0.000 C 
BRANCH   9  10
ATOM     10  C   UNL     1      36.265  11.090  18.069  1.00  0.00    -0.000 C 
BRANCH  10  11
ATOM     11  C   UNL     1      37.239  10.374  19.012  1.00  0.00    -0.003 C 
ATOM     12  C   UNL     1      38.458  11.243  19.311  1.00  0.00     0.004 C 
ENDBRANCH  10  11
ENDBRANCH   9  10
ENDBRANCH   8   9
ENDBRANCH   7   8
ENDBRANCH   6   7
ENDBRANCH   5   6
ENDBRANCH   4   5
ENDBRANCH   3   4
ENDBRANCH   2   3
ENDBRANCH   1   2
BRANCH   1  13
ATOM     13  C   UNL     1      31.314   9.283  22.621  1.00  0.00     0.000 C 
BRANCH  13  14
ATOM     14  C   UNL     1      31.995  10.500  23.269  1.00  0.00     0.000 C 
BRANCH  14  15
ATOM     15  C   UNL     1      32.366  11.587  22.249  1.00  0.00     0.000 C 
BRANCH  15  16
ATOM     16  C   UNL     1      33.782  12.125  22.511  1.00  0.00     0.000 C 
BRANCH  16  17
ATOM     17  C   UNL     1      34.622  11.185  23.389  1.00  0.00     0.000 C 
BRANCH  17  18
ATOM     18  C   UNL     1      35.953  10.787  22.727  1.00  0.00     0.000 C 
BRANCH  18  19
ATOM     19  C   UNL     1      35.953   9.338  22.208  1.00  0.00     0.000 C 
BRANCH  19  20
ATOM     20  C   UNL     1      37.268   8.561  22.432  1.00  0.00     0.006 C 
BRANCH  20  21
ATOM     21  C   UNL     1      38.231   9.212  23.436  1.00  0.00     0.053 C 
BRANCH  21  22
ATOM     22  C   UNL     1      39.540   8.487  23.509  1.00  0.00     0.041 C 
ATOM     23  O   UNL     1      40.525   9.017  24.089  1.00  0.00    -0.550 OA
ATOM     24  O   UNL     1      39.684   7.244  22.905  1.00  0.00    -0.550 OA
ENDBRANCH  21  22
ENDBRANCH  20  21
ENDBRANCH  19  20
ENDBRANCH  18  19
ENDBRANCH  17  18
ENDBRANCH  16  17
ENDBRANCH  15  16
ENDBRANCH  14  15
ENDBRANCH  13  14
ENDBRANCH   1  13
TORSDOF 20
ENDMDL
MODEL 4
REMARK VINA RESULT:    -2.851      1.390      4.544
REMARK INTER + INTRA:          -9.678
REMARK INTER:                  -6.604
REMARK INTRA:                  -3.074
REMARK UNBOUND:                -3.494
REMARK SMILES CCCCCCCCCCCCCCCCCCCCCC(=O)[O-]
REMARK SMILES IDX 12 1 11 2 10 3 9 4 8 5 7 6 6 7 5 8 4 9 3 10 2 11 1 12 13 13
REMARK SMILES IDX 14 14 15 15 16 16 17 17 18 18 19 19 20 20 21 21 22 22 23 23
REMARK SMILES IDX 24 24
REMARK H PARENT
REMARK Flexibility Score: inf
ROOT
ATOM      1  C   UNL     1      30.918   7.604  21.740  1.00  0.00     0.000 C 
ENDROOT
BRANCH   1   2
ATOM      2  C   UNL     1      31.184   6.941  20.379  1.00  0.00     0.000 C 
BRANCH   2   3
ATOM      3  C   UNL     1      31.385   5.419  20.486  1.00  0.00     0.000 C 
BRANCH   3   4
ATOM      4  C   UNL     1      32.218   5.029  21.726  1.00  0.00    -0.000 C 
BRANCH   4   5
ATOM      5  C   UNL     1      33.692   4.722  21.409  1.00  0.00    -0.000 C 
BRANCH   5   6
ATOM      6  C   UNL     1      34.031   4.882  19.918  1.00  0.00    -0.000 C 
BRANCH   6   7
ATOM      7  C   UNL     1      34.982   6.070  19.661  1.00  0.00    -0.000 C 
BRANCH   7   8
ATOM      8  C   UNL     1      34.858   7.193  20.706  1.00  0.00    -0.000 C 
BRANCH   8   9
ATOM      9  C   UNL     1      35.147   8.583  20.126  1.00  0.00    -0.000 C 
BRANCH   9  10
ATOM     10  C   UNL     1      34.312   8.838  18.866  1.00  0.00    -0.000 C 
BRANCH  10  11
ATOM     11  C   UNL     1      33.552  10.166  18.971  1.00  0.00    -0.003 C 
ATOM     12  C   UNL     1      34.259  11.270  18.189  1.00  0.00     0.004 C 
ENDBRANCH  10  11
ENDBRANCH   9  10
ENDBRANCH   8   9
ENDBRANCH   7   8
ENDBRANCH   6   7
ENDBRANCH   5   6
ENDBRANCH   4   5
ENDBRANCH   3   4
ENDBRANCH   2   3
ENDBRANCH   1   2
BRANCH   1  13
ATOM     13  C   UNL     1      31.794   8.848  21.972  1.00  0.00     0.000 C 
BRANCH  13  14
ATOM     14  C   UNL     1      31.295   9.715  23.139  1.00  0.00     0.000 C 
BRANCH  14  15
ATOM     15  C   UNL     1      32.024  11.065  23.233  1.00  0.00     0.000 C 
BRANCH  15  16
ATOM     16  C   UNL     1      33.328  11.042  22.421  1.00  0.00     0.000 C 
BRANCH  16  17
ATOM     17  C   UNL     1      34.582  11.048  23.310  1.00  0.00     0.000 C 
BRANCH  17  18
ATOM     18  C   UNL     1      35.743  11.846  22.690  1.00  0.00     0.000 C 
BRANCH  18  19
ATOM     19  C   UNL     1      37.079  11.082  22.723  1.00  0.00     0.000 C 
BRANCH  19  20
ATOM     20  C   UNL     1      36.957   9.553  22.896  1.00  0.00     0.006 C 
BRANCH  20  21
ATOM     21  C   UNL     1      38.140   8.896  23.625  1.00  0.00     0.053 C 
BRANCH  21  22
ATOM     22  C   UNL     1      39.000   8.099  22.694  1.00  0.00     0.041 C 
ATOM     23  O   UNL     1      40.238   8.004  22.902  1.00  0.00    -0.550 OA
ATOM     24  O   UNL     1      38.442   7.491  21.576  1.00  0.00    -0.550 OA
ENDBRANCH  21  22
ENDBRANCH  20  21
ENDBRANCH  19  20
ENDBRANCH  18  19
ENDBRANCH  17  18
ENDBRANCH  16  17
ENDBRANCH  15  16
ENDBRANCH  14  15
ENDBRANCH  13  14
ENDBRANCH   1  13
TORSDOF 20
ENDMDL
MODEL 5
REMARK VINA RESULT:    -2.829      2.138      5.611
REMARK INTER + INTRA:          -9.631
REMARK INTER:                  -6.337
REMARK INTRA:                  -3.295
REMARK UNBOUND:                -3.494
REMARK SMILES CCCCCCCCCCCCCCCCCCCCCC(=O)[O-]
REMARK SMILES IDX 12 1 11 2 10 3 9 4 8 5 7 6 6 7 5 8 4 9 3 10 2 11 1 12 13 13
REMARK SMILES IDX 14 14 15 15 16 16 17 17 18 18 19 19 20 20 21 21 22 22 23 23
REMARK SMILES IDX 24 24
REMARK H PARENT
REMARK Flexibility Score: inf
ROOT
ATOM      1  C   UNL     1      32.024   8.687  21.797  1.00  0.00     0.000 C 
ENDROOT
BRANCH   1   2
ATOM      2  C   UNL     1      31.280   7.404  21.392  1.00  0.00     0.000 C 
BRANCH   2   3
ATOM      3  C   UNL     1      32.158   6.436  20.579  1.00  0.00     0.000 C 
BRANCH   3   4
ATOM      4  C   UNL     1      33.659   6.777  20.695  1.00  0.00    -0.000 C 
BRANCH   4   5
ATOM      5  C   UNL     1      34.563   5.544  20.864  1.00  0.00    -0.000 C 
BRANCH   5   6
ATOM      6  C   UNL     1      35.851   5.625  20.026  1.00  0.00    -0.000 C 
BRANCH   6   7
ATOM      7  C   UNL     1      37.119   5.502  20.896  1.00  0.00    -0.000 C 
BRANCH   7   8
ATOM      8  C   UNL     1      37.425   6.767  21.718  1.00  0.00    -0.000 C 
BRANCH   8   9
ATOM      9  C   UNL     1      37.364   6.524  23.231  1.00  0.00    -0.000 C 
BRANCH   9  10
ATOM     10  C   UNL     1      38.199   7.563  23.990  1.00  0.00    -0.000 C 
BRANCH  10  11
ATOM     11  C   UNL     1      39.357   8.075  23.124  1.00  0.00    -0.003 C 
ATOM     12  C   UNL     1      39.397   9.601  23.102  1.00  0.00     0.004 C 
ENDBRANCH  10  11
ENDBRANCH   9  10
ENDBRANCH   8   9
ENDBRANCH   7   8
ENDBRANCH   6   7
ENDBRANCH   5   6
ENDBRANCH   4   5
ENDBRANCH   3   4
ENDBRANCH   2   3
ENDBRANCH   1   2
BRANCH   1  13
ATOM     13  C   UNL     1      31.273   9.490  22.874  1.00  0.00     0.000 C 
BRANCH  13  14
ATOM     14  C   UNL     1      32.132  10.608  23.486  1.00  0.00     0.000 C 
BRANCH  14  15
ATOM     15  C   UNL     1      32.426  11.744  22.494  1.00  0.00     0.000 C 
BRANCH  15  16
ATOM     16  C   UNL     1      33.939  11.979  22.361  1.00  0.00     0.000 C 
BRANCH  16  17
ATOM     17  C   UNL     1      34.745  11.326  23.496  1.00  0.00     0.000 C 
BRANCH  17  18
ATOM     18  C   UNL     1      35.803  10.336  22.978  1.00  0.00     0.000 C 
BRANCH  18  19
ATOM     19  C   UNL     1      35.522   9.859  21.541  1.00  0.00     0.000 C 
BRANCH  19  20
ATOM     20  C   UNL     1      36.655  10.127  20.528  1.00  0.00     0.006 C 
BRANCH  20  21
ATOM     21  C   UNL     1      36.190  10.250  19.068  1.00  0.00     0.053 C 
BRANCH  21  22
ATOM     22  C   UNL     1      36.210   8.931  18.359  1.00  0.00     0.041 C 
ATOM     23  O   UNL     1      37.296   8.313  18.202  1.00  0.00    -0.550 OA
ATOM     24  O   UNL     1      35.035   8.401  17.839  1.00  0.00    -0.550 OA
ENDBRANCH  21  22
ENDBRANCH  20  21
ENDBRANCH  19  20
ENDBRANCH  18  19
ENDBRANCH  17  18
ENDBRANCH  16  17
ENDBRANCH  15  16
ENDBRANCH  14  15
ENDBRANCH  13  14
ENDBRANCH   1  13
TORSDOF 20
ENDMDL
MODEL 6
REMARK VINA RESULT:    -2.824      2.028      4.683
REMARK INTER + INTRA:          -9.619
REMARK INTER:                  -6.279
REMARK INTRA:                  -3.341
REMARK UNBOUND:                -3.494
REMARK SMILES CCCCCCCCCCCCCCCCCCCCCC(=O)[O-]
REMARK SMILES IDX 12 1 11 2 10 3 9 4 8 5 7 6 6 7 5 8 4 9 3 10 2 11 1 12 13 13
REMARK SMILES IDX 14 14 15 15 16 16 17 17 18 18 19 19 20 20 21 21 22 22 23 23
REMARK SMILES IDX 24 24
REMARK H PARENT
REMARK Flexibility Score: inf
ROOT
ATOM      1  C   UNL     1      37.652  10.045  22.898  1.00  0.00     0.000 C 
ENDROOT
BRANCH   1   2
ATOM      2  C   UNL     1      36.147  10.160  22.606  1.00  0.00     0.000 C 
BRANCH   2   3
ATOM      3  C   UNL     1      35.594  11.570  22.880  1.00  0.00     0.000 C 
BRANCH   3   4
ATOM      4  C   UNL     1      34.271  11.531  23.675  1.00  0.00    -0.000 C 
BRANCH   4   5
ATOM      5  C   UNL     1      33.021  11.392  22.790  1.00  0.00    -0.000 C 
BRANCH   5   6
ATOM      6  C   UNL     1      31.945  10.484  23.410  1.00  0.00    -0.000 C 
BRANCH   6   7
ATOM      7  C   UNL     1      31.558   9.319  22.476  1.00  0.00    -0.000 C 
BRANCH   7   8
ATOM      8  C   UNL     1      32.676   8.919  21.497  1.00  0.00    -0.000 C 
BRANCH   8   9
ATOM      9  C   UNL     1      32.249   7.813  20.523  1.00  0.00    -0.000 C 
BRANCH   9  10
ATOM     10  C   UNL     1      31.782   6.564  21.280  1.00  0.00    -0.000 C 
BRANCH  10  11
ATOM     11  C   UNL     1      32.597   5.333  20.864  1.00  0.00    -0.003 C 
ATOM     12  C   UNL     1      32.759   4.359  22.028  1.00  0.00     0.004 C 
ENDBRANCH  10  11
ENDBRANCH   9  10
ENDBRANCH   8   9
ENDBRANCH   7   8
ENDBRANCH   6   7
ENDBRANCH   5   6
ENDBRANCH   4   5
ENDBRANCH   3   4
ENDBRANCH   2   3
ENDBRANCH   1   2
BRANCH   1  13
ATOM     13  C   UNL     1      38.016   8.726  23.604  1.00  0.00     0.000 C 
BRANCH  13  14
ATOM     14  C   UNL     1      38.387   7.608  22.616  1.00  0.00     0.000 C 
BRANCH  14  15
ATOM     15  C   UNL     1      37.606   6.309  22.866  1.00  0.00     0.000 C 
BRANCH  15  16
ATOM     16  C   UNL     1      36.825   5.888  21.612  1.00  0.00     0.000 C 
BRANCH  16  17
ATOM     17  C   UNL     1      35.800   6.943  21.167  1.00  0.00     0.000 C 
BRANCH  17  18
ATOM     18  C   UNL     1      35.866   7.233  19.657  1.00  0.00     0.000 C 
BRANCH  18  19
ATOM     19  C   UNL     1      35.848   8.738  19.336  1.00  0.00     0.000 C 
BRANCH  19  20
ATOM     20  C   UNL     1      37.237   9.386  19.150  1.00  0.00     0.006 C 
BRANCH  20  21
ATOM     21  C   UNL     1      38.398   8.386  19.035  1.00  0.00     0.053 C 
BRANCH  21  22
ATOM     22  C   UNL     1      39.728   9.046  19.231  1.00  0.00     0.041 C 
ATOM     23  O   UNL     1      40.703   8.735  18.497  1.00  0.00    -0.550 OA
ATOM     24  O   UNL     1      39.903   9.977  20.248  1.00  0.00    -0.550 OA
ENDBRANCH  21  22
ENDBRANCH  20  21
ENDBRANCH  19  20
ENDBRANCH  18  19
ENDBRANCH  17  18
ENDBRANCH  16  17
ENDBRANCH  15  16
ENDBRANCH  14  15
ENDBRANCH  13  14
ENDBRANCH   1  13
TORSDOF 20
ENDMDL
MODEL 7
REMARK VINA RESULT:    -2.774      1.831      2.774
REMARK INTER + INTRA:          -9.512
REMARK INTER:                  -6.086
REMARK INTRA:                  -3.426
REMARK UNBOUND:                -3.494
REMARK SMILES CCCCCCCCCCCCCCCCCCCCCC(=O)[O-]
REMARK SMILES IDX 12 1 11 2 10 3 9 4 8 5 7 6 6 7 5 8 4 9 3 10 2 11 1 12 13 13
REMARK SMILES IDX 14 14 15 15 16 16 17 17 18 18 19 19 20 20 21 21 22 22 23 23
REMARK SMILES IDX 24 24
REMARK H PARENT
REMARK Flexibility Score: inf
ROOT
ATOM      1  C   UNL     1      32.968   7.883  20.945  1.00  0.00     0.000 C 
ENDROOT
BRANCH   1   2
ATOM      2  C   UNL     1      32.754   9.354  21.335  1.00  0.00     0.000 C 
BRANCH   2   3
ATOM      3  C   UNL     1      31.769   9.523  22.506  1.00  0.00     0.000 C 
BRANCH   3   4
ATOM      4  C   UNL     1      32.069  10.788  23.339  1.00  0.00    -0.000 C 
BRANCH   4   5
ATOM      5  C   UNL     1      33.105  11.723  22.693  1.00  0.00    -0.000 C 
BRANCH   5   6
ATOM      6  C   UNL     1      34.461  11.708  23.419  1.00  0.00    -0.000 C 
BRANCH   6   7
ATOM      7  C   UNL     1      35.602  11.205  22.510  1.00  0.00    -0.000 C 
BRANCH   7   8
ATOM      8  C   UNL     1      36.581  10.255  23.222  1.00  0.00    -0.000 C 
BRANCH   8   9
ATOM      9  C   UNL     1      37.391   9.392  22.247  1.00  0.00    -0.000 C 
BRANCH   9  10
ATOM     10  C   UNL     1      36.479   8.735  21.203  1.00  0.00    -0.000 C 
BRANCH  10  11
ATOM     11  C   UNL     1      36.971   9.029  19.781  1.00  0.00    -0.003 C 
ATOM     12  C   UNL     1      35.803   9.303  18.838  1.00  0.00     0.004 C 
ENDBRANCH  10  11
ENDBRANCH   9  10
ENDBRANCH   8   9
ENDBRANCH   7   8
ENDBRANCH   6   7
ENDBRANCH   5   6
ENDBRANCH   4   5
ENDBRANCH   3   4
ENDBRANCH   2   3
ENDBRANCH   1   2
BRANCH   1  13
ATOM     13  C   UNL     1      32.565   7.593  19.489  1.00  0.00     0.000 C 
BRANCH  13  14
ATOM     14  C   UNL     1      31.268   6.773  19.385  1.00  0.00     0.000 C 
BRANCH  14  15
ATOM     15  C   UNL     1      30.875   6.109  20.714  1.00  0.00     0.000 C 
BRANCH  15  16
ATOM     16  C   UNL     1      31.245   4.617  20.712  1.00  0.00     0.000 C 
BRANCH  16  17
ATOM     17  C   UNL     1      32.380   4.285  21.695  1.00  0.00     0.000 C 
BRANCH  17  18
ATOM     18  C   UNL     1      33.549   3.545  21.021  1.00  0.00     0.000 C 
BRANCH  18  19
ATOM     19  C   UNL     1      33.797   4.010  19.574  1.00  0.00     0.000 C 
BRANCH  19  20
ATOM     20  C   UNL     1      35.061   4.871  19.369  1.00  0.00     0.006 C 
BRANCH  20  21
ATOM     21  C   UNL     1      35.766   5.291  20.669  1.00  0.00     0.053 C 
BRANCH  21  22
ATOM     22  C   UNL     1      37.183   4.809  20.720  1.00  0.00     0.041 C 
ATOM     23  O   UNL     1      37.435   3.577  20.649  1.00  0.00    -0.550 OA
ATOM     24  O   UNL     1      38.223   5.716  20.884  1.00  0.00    -0.550 OA
ENDBRANCH  21  22
ENDBRANCH  20  21
ENDBRANCH  19  20
ENDBRANCH  18  19
ENDBRANCH  17  18
ENDBRANCH  16  17
ENDBRANCH  15  16
ENDBRANCH  14  15
ENDBRANCH  13  14
ENDBRANCH   1  13
TORSDOF 20
ENDMDL
MODEL 8
REMARK VINA RESULT:    -2.774      2.577      5.695
REMARK INTER + INTRA:          -9.511
REMARK INTER:                  -6.188
REMARK INTRA:                  -3.323
REMARK UNBOUND:                -3.494
REMARK SMILES CCCCCCCCCCCCCCCCCCCCCC(=O)[O-]
REMARK SMILES IDX 12 1 11 2 10 3 9 4 8 5 7 6 6 7 5 8 4 9 3 10 2 11 1 12 13 13
REMARK SMILES IDX 14 14 15 15 16 16 17 17 18 18 19 19 20 20 21 21 22 22 23 23
REMARK SMILES IDX 24 24
REMARK H PARENT
REMARK Flexibility Score: inf
ROOT
ATOM      1  C   UNL     1      36.282  10.454  20.631  1.00  0.00     0.000 C 
ENDROOT
BRANCH   1   2
ATOM      2  C   UNL     1      37.543  11.230  20.219  1.00  0.00     0.000 C 
BRANCH   2   3
ATOM      3  C   UNL     1      38.834  10.612  20.783  1.00  0.00     0.000 C 
BRANCH   3   4
ATOM      4  C   UNL     1      39.067  10.999  22.259  1.00  0.00    -0.000 C 
BRANCH   4   5
ATOM      5  C   UNL     1      39.376   9.800  23.172  1.00  0.00    -0.000 C 
BRANCH   5   6
ATOM      6  C   UNL     1      38.137   8.939  23.472  1.00  0.00    -0.000 C 
BRANCH   6   7
ATOM      7  C   UNL     1      38.512   7.489  23.842  1.00  0.00    -0.000 C 
BRANCH   7   8
ATOM      8  C   UNL     1      37.493   6.446  23.350  1.00  0.00    -0.000 C 
BRANCH   8   9
ATOM      9  C   UNL     1      36.755   6.886  22.080  1.00  0.00    -0.000 C 
BRANCH   9  10
ATOM     10  C   UNL     1      37.366   6.234  20.834  1.00  0.00    -0.000 C 
BRANCH  10  11
ATOM     11  C   UNL     1      38.181   7.251  20.025  1.00  0.00    -0.003 C 
ATOM     12  C   UNL     1      39.647   6.838  19.936  1.00  0.00     0.004 C 
ENDBRANCH  10  11
ENDBRANCH   9  10
ENDBRANCH   8   9
ENDBRANCH   7   8
ENDBRANCH   6   7
ENDBRANCH   5   6
ENDBRANCH   4   5
ENDBRANCH   3   4
ENDBRANCH   2   3
ENDBRANCH   1   2
BRANCH   1  13
ATOM     13  C   UNL     1      35.258  11.338  21.365  1.00  0.00     0.000 C 
BRANCH  13  14
ATOM     14  C   UNL     1      35.491  11.377  22.885  1.00  0.00     0.000 C 
BRANCH  14  15
ATOM     15  C   UNL     1      34.181  11.355  23.688  1.00  0.00     0.000 C 
BRANCH  15  16
ATOM     16  C   UNL     1      32.966  11.249  22.754  1.00  0.00     0.000 C 
BRANCH  16  17
ATOM     17  C   UNL     1      31.826  10.409  23.353  1.00  0.00     0.000 C 
BRANCH  17  18
ATOM     18  C   UNL     1      31.466   9.192  22.483  1.00  0.00     0.000 C 
BRANCH  18  19
ATOM     19  C   UNL     1      32.570   8.833  21.471  1.00  0.00     0.000 C 
BRANCH  19  20
ATOM     20  C   UNL     1      32.284   7.591  20.601  1.00  0.00     0.006 C 
BRANCH  20  21
ATOM     21  C   UNL     1      33.479   6.640  20.434  1.00  0.00     0.053 C 
BRANCH  21  22
ATOM     22  C   UNL     1      33.245   5.322  21.106  1.00  0.00     0.041 C 
ATOM     23  O   UNL     1      32.229   5.153  21.831  1.00  0.00    -0.550 OA
ATOM     24  O   UNL     1      34.167   4.292  20.963  1.00  0.00    -0.550 OA
ENDBRANCH  21  22
ENDBRANCH  20  21
ENDBRANCH  19  20
ENDBRANCH  18  19
ENDBRANCH  17  18
ENDBRANCH  16  17
ENDBRANCH  15  16
ENDBRANCH  14  15
ENDBRANCH  13  14
ENDBRANCH   1  13
TORSDOF 20
ENDMDL
MODEL 9
REMARK VINA RESULT:    -2.737      2.981      4.248
REMARK INTER + INTRA:          -9.431
REMARK INTER:                  -5.902
REMARK INTRA:                  -3.530
REMARK UNBOUND:                -3.494
REMARK SMILES CCCCCCCCCCCCCCCCCCCCCC(=O)[O-]
REMARK SMILES IDX 12 1 11 2 10 3 9 4 8 5 7 6 6 7 5 8 4 9 3 10 2 11 1 12 13 13
REMARK SMILES IDX 14 14 15 15 16 16 17 17 18 18 19 19 20 20 21 21 22 22 23 23
REMARK SMILES IDX 24 24
REMARK H PARENT
REMARK Flexibility Score: inf
ROOT
ATOM      1  C   UNL     1      33.083   7.940  20.934  1.00  0.00     0.000 C 
ENDROOT
BRANCH   1   2
ATOM      2  C   UNL     1      32.705   9.393  21.262  1.00  0.00     0.000 C 
BRANCH   2   3
ATOM      3  C   UNL     1      31.867   9.515  22.548  1.00  0.00     0.000 C 
BRANCH   3   4
ATOM      4  C   UNL     1      32.234  10.774  23.363  1.00  0.00    -0.000 C 
BRANCH   4   5
ATOM      5  C   UNL     1      33.394  11.585  22.761  1.00  0.00    -0.000 C 
BRANCH   5   6
ATOM      6  C   UNL     1      34.673  11.525  23.613  1.00  0.00    -0.000 C 
BRANCH   6   7
ATOM      7  C   UNL     1      35.765  10.648  22.963  1.00  0.00    -0.000 C 
BRANCH   7   8
ATOM      8  C   UNL     1      35.974  10.937  21.466  1.00  0.00    -0.000 C 
BRANCH   8   9
ATOM      9  C   UNL     1      36.429   9.703  20.677  1.00  0.00    -0.000 C 
BRANCH   9  10
ATOM     10  C   UNL     1      37.229   8.745  21.568  1.00  0.00    -0.000 C 
BRANCH  10  11
ATOM     11  C   UNL     1      36.690   7.313  21.457  1.00  0.00    -0.003 C 
ATOM     12  C   UNL     1      37.158   6.455  22.629  1.00  0.00     0.004 C 
ENDBRANCH  10  11
ENDBRANCH   9  10
ENDBRANCH   8   9
ENDBRANCH   7   8
ENDBRANCH   6   7
ENDBRANCH   5   6
ENDBRANCH   4   5
ENDBRANCH   3   4
ENDBRANCH   2   3
ENDBRANCH   1   2
BRANCH   1  13
ATOM     13  C   UNL     1      32.822   7.581  19.460  1.00  0.00     0.000 C 
BRANCH  13  14
ATOM     14  C   UNL     1      31.527   6.775  19.266  1.00  0.00     0.000 C 
BRANCH  14  15
ATOM     15  C   UNL     1      30.987   6.190  20.580  1.00  0.00     0.000 C 
BRANCH  15  16
ATOM     16  C   UNL     1      31.217   4.671  20.640  1.00  0.00     0.000 C 
BRANCH  16  17
ATOM     17  C   UNL     1      32.176   4.258  21.768  1.00  0.00     0.000 C 
BRANCH  17  18
ATOM     18  C   UNL     1      33.430   3.537  21.245  1.00  0.00     0.000 C 
BRANCH  18  19
ATOM     19  C   UNL     1      34.505   4.508  20.724  1.00  0.00     0.000 C 
BRANCH  19  20
ATOM     20  C   UNL     1      34.988   4.241  19.282  1.00  0.00     0.006 C 
BRANCH  20  21
ATOM     21  C   UNL     1      33.862   3.972  18.271  1.00  0.00     0.053 C 
BRANCH  21  22
ATOM     22  C   UNL     1      33.922   4.905  17.102  1.00  0.00     0.041 C 
ATOM     23  O   UNL     1      34.915   5.664  16.949  1.00  0.00    -0.550 OA
ATOM     24  O   UNL     1      32.866   4.963  16.200  1.00  0.00    -0.550 OA
ENDBRANCH  21  22
ENDBRANCH  20  21
ENDBRANCH  19  20
ENDBRANCH  18  19
ENDBRANCH  17  18
ENDBRANCH  16  17
ENDBRANCH  15  16
ENDBRANCH  14  15
ENDBRANCH  13  14
ENDBRANCH   1  13
TORSDOF 20
ENDMDL
