MODEL 1
REMARK VINA RESULT:    13.725      0.000      0.000
REMARK INTER + INTRA:          25.744
REMARK INTER:                  26.562
REMARK INTRA:                  -0.818
REMARK UNBOUND:                -0.818
REMARK SMILES CCCCCCCCCCCCCCCCCC(=O)[O-]
REMARK SMILES IDX 10 1 11 2 12 3 13 4 14 5 15 6 16 7 17 8 18 9 19 10 20 11
REMARK SMILES IDX 9 12 8 13 7 14 6 15 5 16 4 17 3 18 2 19 1 20
REMARK H PARENT
REMARK Flexibility Score: inf
ROOT
ATOM      1  C   UNL     1      15.543  15.300  19.792  1.00  0.00     0.000 C 
ENDROOT
BRANCH   1   2
ATOM      2  C   UNL     1      15.311  14.101  20.728  1.00  0.00     0.000 C 
BRANCH   2   3
ATOM      3  C   UNL     1      14.216  13.146  20.219  1.00  0.00     0.000 C 
BRANCH   3   4
ATOM      4  C   UNL     1      14.727  11.914  19.448  1.00  0.00     0.000 C 
BRANCH   4   5
ATOM      5  C   UNL     1      15.092  10.738  20.366  1.00  0.00     0.000 C 
BRANCH   5   6
ATOM      6  C   UNL     1      16.042   9.761  19.657  1.00  0.00     0.000 C 
BRANCH   6   7
ATOM      7  C   UNL     1      17.347   9.518  20.435  1.00  0.00     0.006 C 
BRANCH   7   8
ATOM      8  C   UNL     1      18.580   9.313  19.538  1.00  0.00     0.053 C 
BRANCH   8   9
ATOM      9  C   UNL     1      19.746  10.155  19.960  1.00  0.00     0.041 C 
ATOM     10  O   UNL     1      19.762  10.685  21.102  1.00  0.00    -0.550 OA
ATOM     11  O   UNL     1      20.832  10.323  19.110  1.00  0.00    -0.550 OA
ENDBRANCH   8   9
ENDBRANCH   7   8
ENDBRANCH   6   7
ENDBRANCH   5   6
ENDBRANCH   4   5
ENDBRANCH   3   4
ENDBRANCH   2   3
ENDBRANCH   1   2
BRANCH   1  12
ATOM     12  C   UNL     1      16.639  16.256  20.300  1.00  0.00     0.000 C 
BRANCH  12  13
ATOM     13  C   UNL     1      17.273  17.163  19.230  1.00  0.00    -0.000 C 
BRANCH  13  14
ATOM     14  C   UNL     1      16.239  18.017  18.476  1.00  0.00    -0.000 C 
BRANCH  14  15
ATOM     15  C   UNL     1      16.089  17.600  17.004  1.00  0.00    -0.000 C 
BRANCH  15  16
ATOM     16  C   UNL     1      17.440  17.319  16.327  1.00  0.00    -0.000 C 
BRANCH  16  17
ATOM     17  C   UNL     1      17.248  17.003  14.835  1.00  0.00    -0.000 C 
BRANCH  17  18
ATOM     18  C   UNL     1      17.947  18.019  13.913  1.00  0.00    -0.000 C 
BRANCH  18  19
ATOM     19  C   UNL     1      17.757  19.493  14.312  1.00  0.00    -0.003 C 
ATOM     20  C   UNL     1      19.000  20.345  14.063  1.00  0.00     0.004 C 
ENDBRANCH  18  19
ENDBRANCH  17  18
ENDBRANCH  16  17
ENDBRANCH  15  16
ENDBRANCH  14  15
ENDBRANCH  13  14
ENDBRANCH  12  13
ENDBRANCH   1  12
TORSDOF 16
ENDMDL
MODEL 2
REMARK VINA RESULT:    14.079      5.598      7.857
REMARK INTER + INTRA:          26.430
REMARK INTER:                  27.241
REMARK INTRA:                  -0.812
REMARK UNBOUND:                -0.818
REMARK SMILES CCCCCCCCCCCCCCCCCC(=O)[O-]
REMARK SMILES IDX 10 1 11 2 12 3 13 4 14 5 15 6 16 7 17 8 18 9 19 10 20 11
REMARK SMILES IDX 9 12 8 13 7 14 6 15 5 16 4 17 3 18 2 19 1 20
REMARK H PARENT
REMARK Flexibility Score: inf
ROOT
ATOM      1  C   UNL     1      19.859  18.657  21.129  1.00  0.00     0.000 C 
ENDROOT
BRANCH   1   2
ATOM      2  C   UNL     1      19.472  18.281  22.569  1.00  0.00     0.000 C 
BRANCH   2   3
ATOM      3  C   UNL     1      20.506  18.748  23.610  1.00  0.00     0.000 C 
BRANCH   3   4
ATOM      4  C   UNL     1      20.958  20.214  23.474  1.00  0.00     0.000 C 
BRANCH   4   5
ATOM      5  C   UNL     1      21.744  20.717  24.694  1.00  0.00     0.000 C 
BRANCH   5   6
ATOM      6  C   UNL     1      23.186  21.076  24.310  1.00  0.00     0.000 C 
BRANCH   6   7
ATOM      7  C   UNL     1      24.118  19.852  24.256  1.00  0.00     0.006 C 
BRANCH   7   8
ATOM      8  C   UNL     1      24.795  19.643  22.890  1.00  0.00     0.053 C 
BRANCH   8   9
ATOM      9  C   UNL     1      24.844  18.200  22.488  1.00  0.00     0.041 C 
ATOM     10  O   UNL     1      24.327  17.828  21.401  1.00  0.00    -0.550 OA
ATOM     11  O   UNL     1      25.492  17.270  23.292  1.00  0.00    -0.550 OA
ENDBRANCH   8   9
ENDBRANCH   7   8
ENDBRANCH   6   7
ENDBRANCH   5   6
ENDBRANCH   4   5
ENDBRANCH   3   4
ENDBRANCH   2   3
ENDBRANCH   1   2
BRANCH   1  12
ATOM     12  C   UNL     1      19.122  17.816  20.069  1.00  0.00     0.000 C 
BRANCH  12  13
ATOM     13  C   UNL     1      17.618  17.606  20.322  1.00  0.00    -0.000 C 
BRANCH  13  14
ATOM     14  C   UNL     1      16.913  16.865  19.172  1.00  0.00    -0.000 C 
BRANCH  14  15
ATOM     15  C   UNL     1      16.747  17.740  17.919  1.00  0.00    -0.000 C 
BRANCH  15  16
ATOM     16  C   UNL     1      17.739  17.372  16.804  1.00  0.00    -0.000 C 
BRANCH  16  17
ATOM     17  C   UNL     1      17.015  17.224  15.457  1.00  0.00    -0.000 C 
BRANCH  17  18
ATOM     18  C   UNL     1      17.744  17.935  14.302  1.00  0.00    -0.000 C 
BRANCH  18  19
ATOM     19  C   UNL     1      17.611  19.468  14.301  1.00  0.00    -0.003 C 
ATOM     20  C   UNL     1      18.949  20.186  14.130  1.00  0.00     0.004 C 
ENDBRANCH  18  19
ENDBRANCH  17  18
ENDBRANCH  16  17
ENDBRANCH  15  16
ENDBRANCH  14  15
ENDBRANCH  13  14
ENDBRANCH  12  13
ENDBRANCH   1  12
TORSDOF 16
ENDMDL
MODEL 3
REMARK VINA RESULT:    14.088      5.619      7.931
REMARK INTER + INTRA:          26.447
REMARK INTER:                  27.370
REMARK INTRA:                  -0.922
REMARK UNBOUND:                -0.818
REMARK SMILES CCCCCCCCCCCCCCCCCC(=O)[O-]
REMARK SMILES IDX 10 1 11 2 12 3 13 4 14 5 15 6 16 7 17 8 18 9 19 10 20 11
REMARK SMILES IDX 9 12 8 13 7 14 6 15 5 16 4 17 3 18 2 19 1 20
REMARK H PARENT
REMARK Flexibility Score: inf
ROOT
ATOM      1  C   UNL     1      19.302  18.457  21.660  1.00  0.00     0.000 C 
ENDROOT
BRANCH   1   2
ATOM      2  C   UNL     1      20.638  19.010  22.185  1.00  0.00     0.000 C 
BRANCH   2   3
ATOM      3  C   UNL     1      20.642  19.222  23.710  1.00  0.00     0.000 C 
BRANCH   3   4
ATOM      4  C   UNL     1      21.115  20.610  24.180  1.00  0.00     0.000 C 
BRANCH   4   5
ATOM      5  C   UNL     1      22.468  20.571  24.907  1.00  0.00     0.000 C 
BRANCH   5   6
ATOM      6  C   UNL     1      23.616  20.928  23.951  1.00  0.00     0.000 C 
BRANCH   6   7
ATOM      7  C   UNL     1      24.621  19.778  23.760  1.00  0.00     0.006 C 
BRANCH   7   8
ATOM      8  C   UNL     1      24.939  19.465  22.287  1.00  0.00     0.053 C 
BRANCH   8   9
ATOM      9  C   UNL     1      24.537  18.076  21.895  1.00  0.00     0.041 C 
ATOM     10  O   UNL     1      24.975  17.085  22.536  1.00  0.00    -0.550 OA
ATOM     11  O   UNL     1      23.648  17.875  20.845  1.00  0.00    -0.550 OA
ENDBRANCH   8   9
ENDBRANCH   7   8
ENDBRANCH   6   7
ENDBRANCH   5   6
ENDBRANCH   4   5
ENDBRANCH   3   4
ENDBRANCH   2   3
ENDBRANCH   1   2
BRANCH   1  12
ATOM     12  C   UNL     1      19.398  17.927  20.216  1.00  0.00     0.000 C 
BRANCH  12  13
ATOM     13  C   UNL     1      18.253  16.997  19.777  1.00  0.00    -0.000 C 
BRANCH  13  14
ATOM     14  C   UNL     1      16.885  17.700  19.745  1.00  0.00    -0.000 C 
BRANCH  14  15
ATOM     15  C   UNL     1      16.063  17.337  18.497  1.00  0.00    -0.000 C 
BRANCH  15  16
ATOM     16  C   UNL     1      16.546  18.069  17.236  1.00  0.00    -0.000 C 
BRANCH  16  17
ATOM     17  C   UNL     1      17.269  17.102  16.285  1.00  0.00    -0.000 C 
BRANCH  17  18
ATOM     18  C   UNL     1      16.938  17.356  14.804  1.00  0.00    -0.000 C 
BRANCH  18  19
ATOM     19  C   UNL     1      18.056  18.041  13.999  1.00  0.00    -0.003 C 
ATOM     20  C   UNL     1      18.040  19.563  14.127  1.00  0.00     0.004 C 
ENDBRANCH  18  19
ENDBRANCH  17  18
ENDBRANCH  16  17
ENDBRANCH  15  16
ENDBRANCH  14  15
ENDBRANCH  13  14
ENDBRANCH  12  13
ENDBRANCH   1  12
TORSDOF 16
ENDMDL
MODEL 4
REMARK VINA RESULT:    14.126      0.965      1.569
REMARK INTER + INTRA:          26.520
REMARK INTER:                  27.334
REMARK INTRA:                  -0.814
REMARK UNBOUND:                -0.818
REMARK SMILES CCCCCCCCCCCCCCCCCC(=O)[O-]
REMARK SMILES IDX 10 1 11 2 12 3 13 4 14 5 15 6 16 7 17 8 18 9 19 10 20 11
REMARK SMILES IDX 9 12 8 13 7 14 6 15 5 16 4 17 3 18 2 19 1 20
REMARK H PARENT
REMARK Flexibility Score: inf
ROOT
ATOM      1  C   UNL     1      15.354  15.099  20.064  1.00  0.00     0.000 C 
ENDROOT
BRANCH   1   2
ATOM      2  C   UNL     1      15.063  13.721  20.684  1.00  0.00     0.000 C 
BRANCH   2   3
ATOM      3  C   UNL     1      14.047  12.899  19.870  1.00  0.00     0.000 C 
BRANCH   3   4
ATOM      4  C   UNL     1      14.564  11.545  19.350  1.00  0.00     0.000 C 
BRANCH   4   5
ATOM      5  C   UNL     1      15.641  10.925  20.253  1.00  0.00     0.000 C 
BRANCH   5   6
ATOM      6  C   UNL     1      15.932   9.473  19.845  1.00  0.00     0.000 C 
BRANCH   6   7
ATOM      7  C   UNL     1      17.404   9.238  19.461  1.00  0.00     0.006 C 
BRANCH   7   8
ATOM      8  C   UNL     1      18.395   9.467  20.617  1.00  0.00     0.053 C 
BRANCH   8   9
ATOM      9  C   UNL     1      19.584  10.280  20.203  1.00  0.00     0.041 C 
ATOM     10  O   UNL     1      20.239   9.964  19.175  1.00  0.00    -0.550 OA
ATOM     11  O   UNL     1      19.948  11.408  20.928  1.00  0.00    -0.550 OA
ENDBRANCH   8   9
ENDBRANCH   7   8
ENDBRANCH   6   7
ENDBRANCH   5   6
ENDBRANCH   4   5
ENDBRANCH   3   4
ENDBRANCH   2   3
ENDBRANCH   1   2
BRANCH   1  12
ATOM     12  C   UNL     1      16.666  15.723  20.576  1.00  0.00     0.000 C 
BRANCH  12  13
ATOM     13  C   UNL     1      17.315  16.758  19.639  1.00  0.00    -0.000 C 
BRANCH  13  14
ATOM     14  C   UNL     1      16.491  18.051  19.509  1.00  0.00    -0.000 C 
BRANCH  14  15
ATOM     15  C   UNL     1      16.116  18.367  18.052  1.00  0.00    -0.000 C 
BRANCH  15  16
ATOM     16  C   UNL     1      16.803  17.431  17.046  1.00  0.00    -0.000 C 
BRANCH  16  17
ATOM     17  C   UNL     1      16.302  17.701  15.618  1.00  0.00    -0.000 C 
BRANCH  17  18
ATOM     18  C   UNL     1      17.402  18.248  14.690  1.00  0.00    -0.000 C 
BRANCH  18  19
ATOM     19  C   UNL     1      18.151  17.180  13.875  1.00  0.00    -0.003 C 
ATOM     20  C   UNL     1      17.643  15.763  14.136  1.00  0.00     0.004 C 
ENDBRANCH  18  19
ENDBRANCH  17  18
ENDBRANCH  16  17
ENDBRANCH  15  16
ENDBRANCH  14  15
ENDBRANCH  13  14
ENDBRANCH  12  13
ENDBRANCH   1  12
TORSDOF 16
ENDMDL
MODEL 5
REMARK VINA RESULT:    14.504      5.983      8.125
REMARK INTER + INTRA:          27.253
REMARK INTER:                  27.902
REMARK INTRA:                  -0.649
REMARK UNBOUND:                -0.818
REMARK SMILES CCCCCCCCCCCCCCCCCC(=O)[O-]
REMARK SMILES IDX 10 1 11 2 12 3 13 4 14 5 15 6 16 7 17 8 18 9 19 10 20 11
REMARK SMILES IDX 9 12 8 13 7 14 6 15 5 16 4 17 3 18 2 19 1 20
REMARK H PARENT
REMARK Flexibility Score: inf
ROOT
ATOM      1  C   UNL     1      19.892  18.436  20.828  1.00  0.00     0.000 C 
ENDROOT
BRANCH   1   2
ATOM      2  C   UNL     1      20.713  17.709  19.750  1.00  0.00     0.000 C 
BRANCH   2   3
ATOM      3  C   UNL     1      22.223  18.000  19.847  1.00  0.00     0.000 C 
BRANCH   3   4
ATOM      4  C   UNL     1      22.824  17.883  21.260  1.00  0.00     0.000 C 
BRANCH   4   5
ATOM      5  C   UNL     1      24.315  17.517  21.252  1.00  0.00     0.000 C 
BRANCH   5   6
ATOM      6  C   UNL     1      24.993  17.940  22.563  1.00  0.00     0.000 C 
BRANCH   6   7
ATOM      7  C   UNL     1      24.748  19.418  22.918  1.00  0.00     0.006 C 
BRANCH   7   8
ATOM      8  C   UNL     1      24.134  19.632  24.313  1.00  0.00     0.053 C 
BRANCH   8   9
ATOM      9  C   UNL     1      23.191  20.795  24.354  1.00  0.00     0.041 C 
ATOM     10  O   UNL     1      22.007  20.636  24.752  1.00  0.00    -0.550 OA
ATOM     11  O   UNL     1      23.627  22.063  23.989  1.00  0.00    -0.550 OA
ENDBRANCH   8   9
ENDBRANCH   7   8
ENDBRANCH   6   7
ENDBRANCH   5   6
ENDBRANCH   4   5
ENDBRANCH   3   4
ENDBRANCH   2   3
ENDBRANCH   1   2
BRANCH   1  12
ATOM     12  C   UNL     1      18.416  17.995  20.858  1.00  0.00     0.000 C 
BRANCH  12  13
ATOM     13  C   UNL     1      17.971  17.098  19.689  1.00  0.00    -0.000 C 
BRANCH  13  14
ATOM     14  C   UNL     1      16.512  17.344  19.266  1.00  0.00    -0.000 C 
BRANCH  14  15
ATOM     15  C   UNL     1      16.403  18.032  17.895  1.00  0.00    -0.000 C 
BRANCH  15  16
ATOM     16  C   UNL     1      17.256  17.346  16.817  1.00  0.00    -0.000 C 
BRANCH  16  17
ATOM     17  C   UNL     1      16.456  17.172  15.517  1.00  0.00    -0.000 C 
BRANCH  17  18
ATOM     18  C   UNL     1      17.353  16.938  14.287  1.00  0.00    -0.000 C 
BRANCH  18  19
ATOM     19  C   UNL     1      18.216  18.145  13.878  1.00  0.00    -0.003 C 
ATOM     20  C   UNL     1      17.708  19.467  14.453  1.00  0.00     0.004 C 
ENDBRANCH  18  19
ENDBRANCH  17  18
ENDBRANCH  16  17
ENDBRANCH  15  16
ENDBRANCH  14  15
ENDBRANCH  13  14
ENDBRANCH  12  13
ENDBRANCH   1  12
TORSDOF 16
ENDMDL
MODEL 6
REMARK VINA RESULT:    14.510      5.978      8.822
REMARK INTER + INTRA:          27.264
REMARK INTER:                  28.443
REMARK INTRA:                  -1.179
REMARK UNBOUND:                -0.818
REMARK SMILES CCCCCCCCCCCCCCCCCC(=O)[O-]
REMARK SMILES IDX 10 1 11 2 12 3 13 4 14 5 15 6 16 7 17 8 18 9 19 10 20 11
REMARK SMILES IDX 9 12 8 13 7 14 6 15 5 16 4 17 3 18 2 19 1 20
REMARK H PARENT
REMARK Flexibility Score: inf
ROOT
ATOM      1  C   UNL     1      20.685  17.519  19.502  1.00  0.00     0.000 C 
ENDROOT
BRANCH   1   2
ATOM      2  C   UNL     1      19.445  18.098  20.204  1.00  0.00     0.000 C 
BRANCH   2   3
ATOM      3  C   UNL     1      18.442  17.015  20.642  1.00  0.00     0.000 C 
BRANCH   3   4
ATOM      4  C   UNL     1      17.227  16.831  19.714  1.00  0.00     0.000 C 
BRANCH   4   5
ATOM      5  C   UNL     1      16.556  18.159  19.331  1.00  0.00     0.000 C 
BRANCH   5   6
ATOM      6  C   UNL     1      15.987  18.096  17.906  1.00  0.00     0.000 C 
BRANCH   6   7
ATOM      7  C   UNL     1      16.950  17.441  16.900  1.00  0.00     0.006 C 
BRANCH   7   8
ATOM      8  C   UNL     1      16.425  17.422  15.454  1.00  0.00     0.053 C 
BRANCH   8   9
ATOM      9  C   UNL     1      17.529  17.386  14.441  1.00  0.00     0.041 C 
ATOM     10  O   UNL     1      18.006  16.284  14.065  1.00  0.00    -0.550 OA
ATOM     11  O   UNL     1      18.006  18.566  13.883  1.00  0.00    -0.550 OA
ENDBRANCH   8   9
ENDBRANCH   7   8
ENDBRANCH   6   7
ENDBRANCH   5   6
ENDBRANCH   4   5
ENDBRANCH   3   4
ENDBRANCH   2   3
ENDBRANCH   1   2
BRANCH   1  12
ATOM     12  C   UNL     1      21.986  18.253  19.878  1.00  0.00     0.000 C 
BRANCH  12  13
ATOM     13  C   UNL     1      22.770  17.646  21.055  1.00  0.00    -0.000 C 
BRANCH  13  14
ATOM     14  C   UNL     1      24.271  17.982  21.015  1.00  0.00    -0.000 C 
BRANCH  14  15
ATOM     15  C   UNL     1      24.859  18.225  22.414  1.00  0.00    -0.000 C 
BRANCH  15  16
ATOM     16  C   UNL     1      24.755  19.693  22.855  1.00  0.00    -0.000 C 
BRANCH  16  17
ATOM     17  C   UNL     1      24.037  19.808  24.208  1.00  0.00    -0.000 C 
BRANCH  17  18
ATOM     18  C   UNL     1      23.254  21.125  24.363  1.00  0.00    -0.000 C 
BRANCH  18  19
ATOM     19  C   UNL     1      21.750  20.954  24.641  1.00  0.00    -0.003 C 
ATOM     20  C   UNL     1      21.122  19.807  23.851  1.00  0.00     0.004 C 
ENDBRANCH  18  19
ENDBRANCH  17  18
ENDBRANCH  16  17
ENDBRANCH  15  16
ENDBRANCH  14  15
ENDBRANCH  13  14
ENDBRANCH  12  13
ENDBRANCH   1  12
TORSDOF 16
ENDMDL
MODEL 7
REMARK VINA RESULT:    14.561      6.008      8.655
REMARK INTER + INTRA:          27.363
REMARK INTER:                  28.591
REMARK INTRA:                  -1.228
REMARK UNBOUND:                -0.818
REMARK SMILES CCCCCCCCCCCCCCCCCC(=O)[O-]
REMARK SMILES IDX 10 1 11 2 12 3 13 4 14 5 15 6 16 7 17 8 18 9 19 10 20 11
REMARK SMILES IDX 9 12 8 13 7 14 6 15 5 16 4 17 3 18 2 19 1 20
REMARK H PARENT
REMARK Flexibility Score: inf
ROOT
ATOM      1  C   UNL     1      20.310  18.415  21.005  1.00  0.00     0.000 C 
ENDROOT
BRANCH   1   2
ATOM      2  C   UNL     1      19.090  18.190  20.096  1.00  0.00     0.000 C 
BRANCH   2   3
ATOM      3  C   UNL     1      18.410  16.828  20.330  1.00  0.00     0.000 C 
BRANCH   3   4
ATOM      4  C   UNL     1      17.022  16.668  19.682  1.00  0.00     0.000 C 
BRANCH   4   5
ATOM      5  C   UNL     1      16.351  18.010  19.354  1.00  0.00     0.000 C 
BRANCH   5   6
ATOM      6  C   UNL     1      15.871  18.043  17.896  1.00  0.00     0.000 C 
BRANCH   6   7
ATOM      7  C   UNL     1      16.893  17.449  16.910  1.00  0.00     0.006 C 
BRANCH   7   8
ATOM      8  C   UNL     1      16.407  17.416  15.450  1.00  0.00     0.053 C 
BRANCH   8   9
ATOM      9  C   UNL     1      17.539  17.406  14.468  1.00  0.00     0.041 C 
ATOM     10  O   UNL     1      18.041  18.489  14.070  1.00  0.00    -0.550 OA
ATOM     11  O   UNL     1      18.065  16.200  14.019  1.00  0.00    -0.550 OA
ENDBRANCH   8   9
ENDBRANCH   7   8
ENDBRANCH   6   7
ENDBRANCH   5   6
ENDBRANCH   4   5
ENDBRANCH   3   4
ENDBRANCH   2   3
ENDBRANCH   1   2
BRANCH   1  12
ATOM     12  C   UNL     1      19.937  19.012  22.375  1.00  0.00     0.000 C 
BRANCH  12  13
ATOM     13  C   UNL     1      21.042  18.952  23.445  1.00  0.00    -0.000 C 
BRANCH  13  14
ATOM     14  C   UNL     1      20.973  20.118  24.446  1.00  0.00    -0.000 C 
BRANCH  14  15
ATOM     15  C   UNL     1      22.153  21.093  24.299  1.00  0.00    -0.000 C 
BRANCH  15  16
ATOM     16  C   UNL     1      23.505  20.443  24.633  1.00  0.00    -0.000 C 
BRANCH  16  17
ATOM     17  C   UNL     1      24.361  20.281  23.367  1.00  0.00    -0.000 C 
BRANCH  17  18
ATOM     18  C   UNL     1      25.192  18.985  23.367  1.00  0.00    -0.000 C 
BRANCH  18  19
ATOM     19  C   UNL     1      24.578  17.823  22.566  1.00  0.00    -0.003 C 
ATOM     20  C   UNL     1      24.314  18.178  21.104  1.00  0.00     0.004 C 
ENDBRANCH  18  19
ENDBRANCH  17  18
ENDBRANCH  16  17
ENDBRANCH  15  16
ENDBRANCH  14  15
ENDBRANCH  13  14
ENDBRANCH  12  13
ENDBRANCH   1  12
TORSDOF 16
ENDMDL
MODEL 8
REMARK VINA RESULT:    14.565      3.017      8.045
REMARK INTER + INTRA:          27.370
REMARK INTER:                  28.152
REMARK INTRA:                  -0.782
REMARK UNBOUND:                -0.818
REMARK SMILES CCCCCCCCCCCCCCCCCC(=O)[O-]
REMARK SMILES IDX 10 1 11 2 12 3 13 4 14 5 15 6 16 7 17 8 18 9 19 10 20 11
REMARK SMILES IDX 9 12 8 13 7 14 6 15 5 16 4 17 3 18 2 19 1 20
REMARK H PARENT
REMARK Flexibility Score: inf
ROOT
ATOM      1  C   UNL     1      15.049  13.876  20.634  1.00  0.00     0.000 C 
ENDROOT
BRANCH   1   2
ATOM      2  C   UNL     1      15.325  15.072  19.707  1.00  0.00     0.000 C 
BRANCH   2   3
ATOM      3  C   UNL     1      15.899  16.291  20.454  1.00  0.00     0.000 C 
BRANCH   3   4
ATOM      4  C   UNL     1      17.392  16.571  20.204  1.00  0.00     0.000 C 
BRANCH   4   5
ATOM      5  C   UNL     1      17.638  17.493  19.000  1.00  0.00     0.000 C 
BRANCH   5   6
ATOM      6  C   UNL     1      16.318  17.840  18.295  1.00  0.00     0.000 C 
BRANCH   6   7
ATOM      7  C   UNL     1      16.312  17.458  16.804  1.00  0.00     0.006 C 
BRANCH   7   8
ATOM      8  C   UNL     1      17.711  17.417  16.164  1.00  0.00     0.053 C 
BRANCH   8   9
ATOM      9  C   UNL     1      17.658  17.386  14.667  1.00  0.00     0.041 C 
ATOM     10  O   UNL     1      17.854  18.438  14.005  1.00  0.00    -0.550 OA
ATOM     11  O   UNL     1      17.430  16.188  13.999  1.00  0.00    -0.550 OA
ENDBRANCH   8   9
ENDBRANCH   7   8
ENDBRANCH   6   7
ENDBRANCH   5   6
ENDBRANCH   4   5
ENDBRANCH   3   4
ENDBRANCH   2   3
ENDBRANCH   1   2
BRANCH   1  12
ATOM     12  C   UNL     1      13.865  13.011  20.161  1.00  0.00     0.000 C 
BRANCH  12  13
ATOM     13  C   UNL     1      14.247  11.674  19.501  1.00  0.00    -0.000 C 
BRANCH  13  14
ATOM     14  C   UNL     1      15.647  11.181  19.907  1.00  0.00    -0.000 C 
BRANCH  14  15
ATOM     15  C   UNL     1      15.717   9.651  20.044  1.00  0.00    -0.000 C 
BRANCH  15  16
ATOM     16  C   UNL     1      16.909   9.042  19.290  1.00  0.00    -0.000 C 
BRANCH  16  17
ATOM     17  C   UNL     1      18.210   9.222  20.087  1.00  0.00    -0.000 C 
BRANCH  17  18
ATOM     18  C   UNL     1      19.457   9.313  19.188  1.00  0.00    -0.000 C 
BRANCH  18  19
ATOM     19  C   UNL     1      20.426  10.454  19.541  1.00  0.00    -0.003 C 
ATOM     20  C   UNL     1      20.090  11.137  20.866  1.00  0.00     0.004 C 
ENDBRANCH  18  19
ENDBRANCH  17  18
ENDBRANCH  16  17
ENDBRANCH  15  16
ENDBRANCH  14  15
ENDBRANCH  13  14
ENDBRANCH  12  13
ENDBRANCH   1  12
TORSDOF 16
ENDMDL
