MODEL 1
REMARK VINA RESULT:    -4.018      0.000      0.000
REMARK INTER + INTRA:         -15.694
REMARK INTER:                 -10.596
REMARK INTRA:                  -5.098
REMARK UNBOUND:                -5.098
REMARK SMILES CCCCCCCCCCCCCCCCCCCCCCCCCCCCCC(=O)[O-]
REMARK SMILES IDX 16 1 17 2 18 3 19 4 20 5 21 6 22 7 23 8 24 9 25 10 26 11
REMARK SMILES IDX 27 12 28 13 29 14 30 15 31 16 32 17 15 18 14 19 13 20 12 21
REMARK SMILES IDX 11 22 10 23 9 24 8 25 7 26 6 27 5 28 4 29 3 30 2 31 1 32
REMARK H PARENT
REMARK Flexibility Score: inf
ROOT
ATOM      1  C   UNL     1      76.402 -74.630  -1.121  1.00  0.00     0.000 C 
ENDROOT
BRANCH   1   2
ATOM      2  C   UNL     1      76.919 -75.870  -0.371  1.00  0.00     0.000 C 
BRANCH   2   3
ATOM      3  C   UNL     1      78.093 -76.554  -1.093  1.00  0.00     0.000 C 
BRANCH   3   4
ATOM      4  C   UNL     1      78.007 -78.092  -1.045  1.00  0.00     0.000 C 
BRANCH   4   5
ATOM      5  C   UNL     1      77.007 -78.710  -2.040  1.00  0.00     0.000 C 
BRANCH   5   6
ATOM      6  C   UNL     1      76.974 -77.974  -3.391  1.00  0.00     0.000 C 
BRANCH   6   7
ATOM      7  C   UNL     1      75.567 -77.463  -3.745  1.00  0.00     0.000 C 
BRANCH   7   8
ATOM      8  C   UNL     1      74.567 -77.632  -2.588  1.00  0.00     0.000 C 
BRANCH   8   9
ATOM      9  C   UNL     1      73.528 -76.500  -2.536  1.00  0.00     0.000 C 
BRANCH   9  10
ATOM     10  C   UNL     1      72.737 -76.478  -1.215  1.00  0.00     0.000 C 
BRANCH  10  11
ATOM     11  C   UNL     1      73.384 -77.341  -0.120  1.00  0.00     0.000 C 
BRANCH  11  12
ATOM     12  C   UNL     1      73.666 -76.544   1.166  1.00  0.00     0.000 C 
BRANCH  12  13
ATOM     13  C   UNL     1      72.422 -75.800   1.690  1.00  0.00     0.006 C 
BRANCH  13  14
ATOM     14  C   UNL     1      72.232 -75.879   3.215  1.00  0.00     0.053 C 
BRANCH  14  15
ATOM     15  C   UNL     1      72.884 -77.091   3.807  1.00  0.00     0.041 C 
ATOM     16  O   UNL     1      74.003 -76.994   4.380  1.00  0.00    -0.550 OA
ATOM     17  O   UNL     1      72.251 -78.325   3.738  1.00  0.00    -0.550 OA
ENDBRANCH  14  15
ENDBRANCH  13  14
ENDBRANCH  12  13
ENDBRANCH  11  12
ENDBRANCH  10  11
ENDBRANCH   9  10
ENDBRANCH   8   9
ENDBRANCH   7   8
ENDBRANCH   6   7
ENDBRANCH   5   6
ENDBRANCH   4   5
ENDBRANCH   3   4
ENDBRANCH   2   3
ENDBRANCH   1   2
BRANCH   1  18
ATOM     18  C   UNL     1      77.339 -74.103  -2.225  1.00  0.00     0.000 C 
BRANCH  18  19
ATOM     19  C   UNL     1      76.622 -73.903  -3.569  1.00  0.00     0.000 C 
BRANCH  19  20
ATOM     20  C   UNL     1      76.556 -72.415  -3.938  1.00  0.00     0.000 C 
BRANCH  20  21
ATOM     21  C   UNL     1      75.234 -71.787  -3.471  1.00  0.00     0.000 C 
BRANCH  21  22
ATOM     22  C   UNL     1      74.050 -72.763  -3.557  1.00  0.00     0.000 C 
BRANCH  22  23
ATOM     23  C   UNL     1      73.259 -72.854  -2.243  1.00  0.00     0.000 C 
BRANCH  23  24
ATOM     24  C   UNL     1      71.784 -73.189  -2.509  1.00  0.00    -0.000 C 
BRANCH  24  25
ATOM     25  C   UNL     1      70.829 -72.480  -1.534  1.00  0.00    -0.000 C 
BRANCH  25  26
ATOM     26  C   UNL     1      71.134 -72.804  -0.061  1.00  0.00    -0.000 C 
BRANCH  26  27
ATOM     27  C   UNL     1      70.171 -72.108   0.918  1.00  0.00    -0.000 C 
BRANCH  27  28
ATOM     28  C   UNL     1      70.838 -71.452   2.140  1.00  0.00    -0.000 C 
BRANCH  28  29
ATOM     29  C   UNL     1      70.925 -69.922   2.025  1.00  0.00    -0.000 C 
BRANCH  29  30
ATOM     30  C   UNL     1      72.363 -69.437   2.240  1.00  0.00    -0.000 C 
BRANCH  30  31
ATOM     31  C   UNL     1      73.017 -69.046   0.910  1.00  0.00    -0.003 C 
ATOM     32  C   UNL     1      73.781 -70.220   0.305  1.00  0.00     0.004 C 
ENDBRANCH  30  31
ENDBRANCH  29  30
ENDBRANCH  28  29
ENDBRANCH  27  28
ENDBRANCH  26  27
ENDBRANCH  25  26
ENDBRANCH  24  25
ENDBRANCH  23  24
ENDBRANCH  22  23
ENDBRANCH  21  22
ENDBRANCH  20  21
ENDBRANCH  19  20
ENDBRANCH  18  19
ENDBRANCH   1  18
TORSDOF 28
ENDMDL
MODEL 2
REMARK VINA RESULT:    -3.988      1.219      2.131
REMARK INTER + INTRA:         -15.614
REMARK INTER:                 -10.059
REMARK INTRA:                  -5.555
REMARK UNBOUND:                -5.098
REMARK SMILES CCCCCCCCCCCCCCCCCCCCCCCCCCCCCC(=O)[O-]
REMARK SMILES IDX 16 1 17 2 18 3 19 4 20 5 21 6 22 7 23 8 24 9 25 10 26 11
REMARK SMILES IDX 27 12 28 13 29 14 30 15 31 16 32 17 15 18 14 19 13 20 12 21
REMARK SMILES IDX 11 22 10 23 9 24 8 25 7 26 6 27 5 28 4 29 3 30 2 31 1 32
REMARK H PARENT
REMARK Flexibility Score: inf
ROOT
ATOM      1  C   UNL     1      77.887 -77.437  -0.738  1.00  0.00     0.000 C 
ENDROOT
BRANCH   1   2
ATOM      2  C   UNL     1      78.749 -78.082  -1.837  1.00  0.00     0.000 C 
BRANCH   2   3
ATOM      3  C   UNL     1      78.177 -79.424  -2.329  1.00  0.00     0.000 C 
BRANCH   3   4
ATOM      4  C   UNL     1      76.681 -79.590  -1.997  1.00  0.00     0.000 C 
BRANCH   4   5
ATOM      5  C   UNL     1      75.756 -79.667  -3.226  1.00  0.00     0.000 C 
BRANCH   5   6
ATOM      6  C   UNL     1      75.636 -78.325  -3.970  1.00  0.00     0.000 C 
BRANCH   6   7
ATOM      7  C   UNL     1      74.831 -77.284  -3.174  1.00  0.00     0.000 C 
BRANCH   7   8
ATOM      8  C   UNL     1      73.413 -77.771  -2.827  1.00  0.00     0.000 C 
BRANCH   8   9
ATOM      9  C   UNL     1      73.052 -77.533  -1.352  1.00  0.00     0.000 C 
BRANCH   9  10
ATOM     10  C   UNL     1      74.212 -76.922  -0.546  1.00  0.00     0.000 C 
BRANCH  10  11
ATOM     11  C   UNL     1      73.731 -76.142   0.689  1.00  0.00     0.000 C 
BRANCH  11  12
ATOM     12  C   UNL     1      72.211 -76.257   0.901  1.00  0.00     0.000 C 
BRANCH  12  13
ATOM     13  C   UNL     1      71.837 -76.593   2.357  1.00  0.00     0.006 C 
BRANCH  13  14
ATOM     14  C   UNL     1      72.839 -77.516   3.072  1.00  0.00     0.053 C 
BRANCH  14  15
ATOM     15  C   UNL     1      73.370 -76.909   4.335  1.00  0.00     0.041 C 
ATOM     16  O   UNL     1      74.485 -77.275   4.796  1.00  0.00    -0.550 OA
ATOM     17  O   UNL     1      72.641 -75.929   4.996  1.00  0.00    -0.550 OA
ENDBRANCH  14  15
ENDBRANCH  13  14
ENDBRANCH  12  13
ENDBRANCH  11  12
ENDBRANCH  10  11
ENDBRANCH   9  10
ENDBRANCH   8   9
ENDBRANCH   7   8
ENDBRANCH   6   7
ENDBRANCH   5   6
ENDBRANCH   4   5
ENDBRANCH   3   4
ENDBRANCH   2   3
ENDBRANCH   1   2
BRANCH   1  18
ATOM     18  C   UNL     1      77.735 -75.908  -0.847  1.00  0.00     0.000 C 
BRANCH  18  19
ATOM     19  C   UNL     1      77.917 -75.393  -2.283  1.00  0.00     0.000 C 
BRANCH  19  20
ATOM     20  C   UNL     1      76.983 -74.207  -2.563  1.00  0.00     0.000 C 
BRANCH  20  21
ATOM     21  C   UNL     1      76.018 -73.975  -1.391  1.00  0.00     0.000 C 
BRANCH  21  22
ATOM     22  C   UNL     1      74.864 -73.026  -1.752  1.00  0.00     0.000 C 
BRANCH  22  23
ATOM     23  C   UNL     1      74.574 -72.991  -3.260  1.00  0.00     0.000 C 
BRANCH  23  24
ATOM     24  C   UNL     1      73.406 -73.921  -3.619  1.00  0.00    -0.000 C 
BRANCH  24  25
ATOM     25  C   UNL     1      72.432 -74.130  -2.448  1.00  0.00    -0.000 C 
BRANCH  25  26
ATOM     26  C   UNL     1      71.272 -73.120  -2.451  1.00  0.00    -0.000 C 
BRANCH  26  27
ATOM     27  C   UNL     1      70.568 -73.010  -1.086  1.00  0.00    -0.000 C 
BRANCH  27  28
ATOM     28  C   UNL     1      71.507 -72.887   0.128  1.00  0.00    -0.000 C 
BRANCH  28  29
ATOM     29  C   UNL     1      71.706 -71.434   0.586  1.00  0.00    -0.000 C 
BRANCH  29  30
ATOM     30  C   UNL     1      72.872 -70.778  -0.162  1.00  0.00    -0.000 C 
BRANCH  30  31
ATOM     31  C   UNL     1      73.702 -69.896   0.777  1.00  0.00    -0.003 C 
ATOM     32  C   UNL     1      72.917 -68.662   1.213  1.00  0.00     0.004 C 
ENDBRANCH  30  31
ENDBRANCH  29  30
ENDBRANCH  28  29
ENDBRANCH  27  28
ENDBRANCH  26  27
ENDBRANCH  25  26
ENDBRANCH  24  25
ENDBRANCH  23  24
ENDBRANCH  22  23
ENDBRANCH  21  22
ENDBRANCH  20  21
ENDBRANCH  19  20
ENDBRANCH  18  19
ENDBRANCH   1  18
TORSDOF 28
ENDMDL
MODEL 3
REMARK VINA RESULT:    -3.977      1.268      3.538
REMARK INTER + INTRA:         -15.584
REMARK INTER:                  -9.790
REMARK INTRA:                  -5.794
REMARK UNBOUND:                -5.098
REMARK SMILES CCCCCCCCCCCCCCCCCCCCCCCCCCCCCC(=O)[O-]
REMARK SMILES IDX 16 1 17 2 18 3 19 4 20 5 21 6 22 7 23 8 24 9 25 10 26 11
REMARK SMILES IDX 27 12 28 13 29 14 30 15 31 16 32 17 15 18 14 19 13 20 12 21
REMARK SMILES IDX 11 22 10 23 9 24 8 25 7 26 6 27 5 28 4 29 3 30 2 31 1 32
REMARK H PARENT
REMARK Flexibility Score: inf
ROOT
ATOM      1  C   UNL     1      77.834 -76.534  -0.974  1.00  0.00     0.000 C 
ENDROOT
BRANCH   1   2
ATOM      2  C   UNL     1      78.638 -75.560  -1.855  1.00  0.00     0.000 C 
BRANCH   2   3
ATOM      3  C   UNL     1      77.918 -74.216  -2.063  1.00  0.00     0.000 C 
BRANCH   3   4
ATOM      4  C   UNL     1      77.533 -73.969  -3.534  1.00  0.00     0.000 C 
BRANCH   4   5
ATOM      5  C   UNL     1      76.434 -72.909  -3.741  1.00  0.00     0.000 C 
BRANCH   5   6
ATOM      6  C   UNL     1      75.046 -73.388  -3.280  1.00  0.00     0.000 C 
BRANCH   6   7
ATOM      7  C   UNL     1      74.423 -72.453  -2.230  1.00  0.00     0.000 C 
BRANCH   7   8
ATOM      8  C   UNL     1      73.965 -73.202  -0.966  1.00  0.00     0.000 C 
BRANCH   8   9
ATOM      9  C   UNL     1      74.864 -74.403  -0.634  1.00  0.00     0.000 C 
BRANCH   9  10
ATOM     10  C   UNL     1      74.091 -75.567   0.013  1.00  0.00     0.000 C 
BRANCH  10  11
ATOM     11  C   UNL     1      72.615 -75.224   0.277  1.00  0.00     0.000 C 
BRANCH  11  12
ATOM     12  C   UNL     1      71.792 -76.456   0.694  1.00  0.00     0.000 C 
BRANCH  12  13
ATOM     13  C   UNL     1      72.667 -77.596   1.250  1.00  0.00     0.006 C 
BRANCH  13  14
ATOM     14  C   UNL     1      72.394 -77.944   2.723  1.00  0.00     0.053 C 
BRANCH  14  15
ATOM     15  C   UNL     1      73.038 -76.972   3.665  1.00  0.00     0.041 C 
ATOM     16  O   UNL     1      72.503 -75.852   3.887  1.00  0.00    -0.550 OA
ATOM     17  O   UNL     1      74.221 -77.308   4.309  1.00  0.00    -0.550 OA
ENDBRANCH  14  15
ENDBRANCH  13  14
ENDBRANCH  12  13
ENDBRANCH  11  12
ENDBRANCH  10  11
ENDBRANCH   9  10
ENDBRANCH   8   9
ENDBRANCH   7   8
ENDBRANCH   6   7
ENDBRANCH   5   6
ENDBRANCH   4   5
ENDBRANCH   3   4
ENDBRANCH   2   3
ENDBRANCH   1   2
BRANCH   1  18
ATOM     18  C   UNL     1      77.419 -77.844  -1.669  1.00  0.00     0.000 C 
BRANCH  18  19
ATOM     19  C   UNL     1      75.952 -77.836  -2.127  1.00  0.00     0.000 C 
BRANCH  19  20
ATOM     20  C   UNL     1      75.810 -77.175  -3.505  1.00  0.00     0.000 C 
BRANCH  20  21
ATOM     21  C   UNL     1      74.333 -76.971  -3.871  1.00  0.00     0.000 C 
BRANCH  21  22
ATOM     22  C   UNL     1      73.378 -77.724  -2.932  1.00  0.00     0.000 C 
BRANCH  22  23
ATOM     23  C   UNL     1      71.964 -77.125  -2.918  1.00  0.00     0.000 C 
BRANCH  23  24
ATOM     24  C   UNL     1      71.965 -75.695  -3.479  1.00  0.00    -0.000 C 
BRANCH  24  25
ATOM     25  C   UNL     1      70.716 -74.895  -3.069  1.00  0.00    -0.000 C 
BRANCH  25  26
ATOM     26  C   UNL     1      70.898 -73.378  -3.244  1.00  0.00    -0.000 C 
BRANCH  26  27
ATOM     27  C   UNL     1      69.913 -72.555  -2.393  1.00  0.00    -0.000 C 
BRANCH  27  28
ATOM     28  C   UNL     1      69.889 -72.903  -0.895  1.00  0.00    -0.000 C 
BRANCH  28  29
ATOM     29  C   UNL     1      70.854 -72.043  -0.065  1.00  0.00    -0.000 C 
BRANCH  29  30
ATOM     30  C   UNL     1      70.119 -71.352   1.090  1.00  0.00    -0.000 C 
BRANCH  30  31
ATOM     31  C   UNL     1      71.024 -70.331   1.788  1.00  0.00    -0.003 C 
ATOM     32  C   UNL     1      72.350 -70.174   1.049  1.00  0.00     0.004 C 
ENDBRANCH  30  31
ENDBRANCH  29  30
ENDBRANCH  28  29
ENDBRANCH  27  28
ENDBRANCH  26  27
ENDBRANCH  25  26
ENDBRANCH  24  25
ENDBRANCH  23  24
ENDBRANCH  22  23
ENDBRANCH  21  22
ENDBRANCH  20  21
ENDBRANCH  19  20
ENDBRANCH  18  19
ENDBRANCH   1  18
TORSDOF 28
ENDMDL
MODEL 4
REMARK VINA RESULT:    -3.956      2.662      7.088
REMARK INTER + INTRA:         -15.529
REMARK INTER:                 -10.101
REMARK INTRA:                  -5.428
REMARK UNBOUND:                -5.098
REMARK SMILES CCCCCCCCCCCCCCCCCCCCCCCCCCCCCC(=O)[O-]
REMARK SMILES IDX 16 1 17 2 18 3 19 4 20 5 21 6 22 7 23 8 24 9 25 10 26 11
REMARK SMILES IDX 27 12 28 13 29 14 30 15 31 16 32 17 15 18 14 19 13 20 12 21
REMARK SMILES IDX 11 22 10 23 9 24 8 25 7 26 6 27 5 28 4 29 3 30 2 31 1 32
REMARK H PARENT
REMARK Flexibility Score: inf
ROOT
ATOM      1  C   UNL     1      72.340 -74.935   0.754  1.00  0.00     0.000 C 
ENDROOT
BRANCH   1   2
ATOM      2  C   UNL     1      72.001 -76.098   1.703  1.00  0.00     0.000 C 
BRANCH   2   3
ATOM      3  C   UNL     1      73.238 -76.645   2.436  1.00  0.00     0.000 C 
BRANCH   3   4
ATOM      4  C   UNL     1      72.885 -77.328   3.772  1.00  0.00     0.000 C 
BRANCH   4   5
ATOM      5  C   UNL     1      73.580 -76.722   5.005  1.00  0.00     0.000 C 
BRANCH   5   6
ATOM      6  C   UNL     1      72.668 -76.674   6.244  1.00  0.00     0.000 C 
BRANCH   6   7
ATOM      7  C   UNL     1      71.249 -77.186   5.946  1.00  0.00     0.000 C 
BRANCH   7   8
ATOM      8  C   UNL     1      70.169 -76.118   6.197  1.00  0.00     0.000 C 
BRANCH   8   9
ATOM      9  C   UNL     1      69.887 -75.260   4.954  1.00  0.00     0.000 C 
BRANCH   9  10
ATOM     10  C   UNL     1      70.239 -73.776   5.161  1.00  0.00     0.000 C 
BRANCH  10  11
ATOM     11  C   UNL     1      71.419 -73.318   4.289  1.00  0.00     0.000 C 
BRANCH  11  12
ATOM     12  C   UNL     1      70.968 -72.460   3.093  1.00  0.00     0.000 C 
BRANCH  12  13
ATOM     13  C   UNL     1      71.850 -71.214   2.888  1.00  0.00     0.006 C 
BRANCH  13  14
ATOM     14  C   UNL     1      71.687 -70.540   1.515  1.00  0.00     0.053 C 
BRANCH  14  15
ATOM     15  C   UNL     1      72.924 -69.811   1.089  1.00  0.00     0.041 C 
ATOM     16  O   UNL     1      73.905 -70.446   0.615  1.00  0.00    -0.550 OA
ATOM     17  O   UNL     1      72.991 -68.428   1.202  1.00  0.00    -0.550 OA
ENDBRANCH  14  15
ENDBRANCH  13  14
ENDBRANCH  12  13
ENDBRANCH  11  12
ENDBRANCH  10  11
ENDBRANCH   9  10
ENDBRANCH   8   9
ENDBRANCH   7   8
ENDBRANCH   6   7
ENDBRANCH   5   6
ENDBRANCH   4   5
ENDBRANCH   3   4
ENDBRANCH   2   3
ENDBRANCH   1   2
BRANCH   1  18
ATOM     18  C   UNL     1      71.131 -74.326   0.018  1.00  0.00     0.000 C 
BRANCH  18  19
ATOM     19  C   UNL     1      71.539 -73.478  -1.197  1.00  0.00     0.000 C 
BRANCH  19  20
ATOM     20  C   UNL     1      73.043 -73.175  -1.175  1.00  0.00     0.000 C 
BRANCH  20  21
ATOM     21  C   UNL     1      73.569 -72.881  -2.587  1.00  0.00     0.000 C 
BRANCH  21  22
ATOM     22  C   UNL     1      74.664 -71.802  -2.600  1.00  0.00     0.000 C 
BRANCH  22  23
ATOM     23  C   UNL     1      75.695 -72.016  -3.718  1.00  0.00     0.000 C 
BRANCH  23  24
ATOM     24  C   UNL     1      76.235 -73.454  -3.702  1.00  0.00    -0.000 C 
BRANCH  24  25
ATOM     25  C   UNL     1      77.409 -73.636  -2.725  1.00  0.00    -0.000 C 
BRANCH  25  26
ATOM     26  C   UNL     1      77.296 -74.925  -1.893  1.00  0.00    -0.000 C 
BRANCH  26  27
ATOM     27  C   UNL     1      76.198 -74.847  -0.816  1.00  0.00    -0.000 C 
BRANCH  27  28
ATOM     28  C   UNL     1      75.571 -76.196  -0.420  1.00  0.00    -0.000 C 
BRANCH  28  29
ATOM     29  C   UNL     1      75.194 -77.061  -1.632  1.00  0.00    -0.000 C 
BRANCH  29  30
ATOM     30  C   UNL     1      73.973 -76.484  -2.359  1.00  0.00    -0.000 C 
BRANCH  30  31
ATOM     31  C   UNL     1      72.698 -77.247  -1.983  1.00  0.00    -0.003 C 
ATOM     32  C   UNL     1      71.531 -76.846  -2.882  1.00  0.00     0.004 C 
ENDBRANCH  30  31
ENDBRANCH  29  30
ENDBRANCH  28  29
ENDBRANCH  27  28
ENDBRANCH  26  27
ENDBRANCH  25  26
ENDBRANCH  24  25
ENDBRANCH  23  24
ENDBRANCH  22  23
ENDBRANCH  21  22
ENDBRANCH  20  21
ENDBRANCH  19  20
ENDBRANCH  18  19
ENDBRANCH   1  18
TORSDOF 28
ENDMDL
MODEL 5
REMARK VINA RESULT:    -3.926      1.446      2.377
REMARK INTER + INTRA:         -15.452
REMARK INTER:                 -11.274
REMARK INTRA:                  -4.178
REMARK UNBOUND:                -5.098
REMARK SMILES CCCCCCCCCCCCCCCCCCCCCCCCCCCCCC(=O)[O-]
REMARK SMILES IDX 16 1 17 2 18 3 19 4 20 5 21 6 22 7 23 8 24 9 25 10 26 11
REMARK SMILES IDX 27 12 28 13 29 14 30 15 31 16 32 17 15 18 14 19 13 20 12 21
REMARK SMILES IDX 11 22 10 23 9 24 8 25 7 26 6 27 5 28 4 29 3 30 2 31 1 32
REMARK H PARENT
REMARK Flexibility Score: inf
ROOT
ATOM      1  C   UNL     1      77.131 -75.880  -0.581  1.00  0.00     0.000 C 
ENDROOT
BRANCH   1   2
ATOM      2  C   UNL     1      78.243 -76.742  -1.205  1.00  0.00     0.000 C 
BRANCH   2   3
ATOM      3  C   UNL     1      77.934 -78.248  -1.137  1.00  0.00     0.000 C 
BRANCH   3   4
ATOM      4  C   UNL     1      76.616 -78.618  -1.844  1.00  0.00     0.000 C 
BRANCH   4   5
ATOM      5  C   UNL     1      76.573 -78.271  -3.344  1.00  0.00     0.000 C 
BRANCH   5   6
ATOM      6  C   UNL     1      75.345 -77.427  -3.729  1.00  0.00     0.000 C 
BRANCH   6   7
ATOM      7  C   UNL     1      74.274 -77.415  -2.625  1.00  0.00     0.000 C 
BRANCH   7   8
ATOM      8  C   UNL     1      73.758 -75.998  -2.316  1.00  0.00     0.000 C 
BRANCH   8   9
ATOM      9  C   UNL     1      72.691 -75.987  -1.210  1.00  0.00     0.000 C 
BRANCH   9  10
ATOM     10  C   UNL     1      73.219 -75.428   0.123  1.00  0.00     0.000 C 
BRANCH  10  11
ATOM     11  C   UNL     1      73.743 -76.527   1.062  1.00  0.00     0.000 C 
BRANCH  11  12
ATOM     12  C   UNL     1      72.677 -77.594   1.370  1.00  0.00     0.000 C 
BRANCH  12  13
ATOM     13  C   UNL     1      72.440 -77.780   2.881  1.00  0.00     0.006 C 
BRANCH  13  14
ATOM     14  C   UNL     1      73.421 -77.005   3.777  1.00  0.00     0.053 C 
BRANCH  14  15
ATOM     15  C   UNL     1      72.726 -76.289   4.895  1.00  0.00     0.041 C 
ATOM     16  O   UNL     1      71.990 -75.295   4.652  1.00  0.00    -0.550 OA
ATOM     17  O   UNL     1      72.879 -76.728   6.204  1.00  0.00    -0.550 OA
ENDBRANCH  14  15
ENDBRANCH  13  14
ENDBRANCH  12  13
ENDBRANCH  11  12
ENDBRANCH  10  11
ENDBRANCH   9  10
ENDBRANCH   8   9
ENDBRANCH   7   8
ENDBRANCH   6   7
ENDBRANCH   5   6
ENDBRANCH   4   5
ENDBRANCH   3   4
ENDBRANCH   2   3
ENDBRANCH   1   2
BRANCH   1  18
ATOM     18  C   UNL     1      76.800 -74.591  -1.356  1.00  0.00     0.000 C 
BRANCH  18  19
ATOM     19  C   UNL     1      77.469 -74.537  -2.738  1.00  0.00     0.000 C 
BRANCH  19  20
ATOM     20  C   UNL     1      77.168 -73.208  -3.442  1.00  0.00     0.000 C 
BRANCH  20  21
ATOM     21  C   UNL     1      75.735 -73.185  -3.993  1.00  0.00     0.000 C 
BRANCH  21  22
ATOM     22  C   UNL     1      74.920 -71.988  -3.480  1.00  0.00     0.000 C 
BRANCH  22  23
ATOM     23  C   UNL     1      73.777 -72.406  -2.541  1.00  0.00     0.000 C 
BRANCH  23  24
ATOM     24  C   UNL     1      74.153 -72.161  -1.072  1.00  0.00    -0.000 C 
BRANCH  24  25
ATOM     25  C   UNL     1      73.120 -71.293  -0.333  1.00  0.00    -0.000 C 
BRANCH  25  26
ATOM     26  C   UNL     1      73.768 -70.155   0.474  1.00  0.00    -0.000 C 
BRANCH  26  27
ATOM     27  C   UNL     1      73.055 -69.887   1.812  1.00  0.00    -0.000 C 
BRANCH  27  28
ATOM     28  C   UNL     1      72.041 -68.729   1.794  1.00  0.00    -0.000 C 
BRANCH  28  29
ATOM     29  C   UNL     1      70.717 -69.081   2.490  1.00  0.00    -0.000 C 
BRANCH  29  30
ATOM     30  C   UNL     1      70.335 -68.009   3.517  1.00  0.00    -0.000 C 
BRANCH  30  31
ATOM     31  C   UNL     1      71.567 -67.519   4.286  1.00  0.00    -0.003 C 
ATOM     32  C   UNL     1      71.835 -68.389   5.510  1.00  0.00     0.004 C 
ENDBRANCH  30  31
ENDBRANCH  29  30
ENDBRANCH  28  29
ENDBRANCH  27  28
ENDBRANCH  26  27
ENDBRANCH  25  26
ENDBRANCH  24  25
ENDBRANCH  23  24
ENDBRANCH  22  23
ENDBRANCH  21  22
ENDBRANCH  20  21
ENDBRANCH  19  20
ENDBRANCH  18  19
ENDBRANCH   1  18
TORSDOF 28
ENDMDL
MODEL 6
REMARK VINA RESULT:    -3.868      2.152      6.011
REMARK INTER + INTRA:         -15.299
REMARK INTER:                 -10.834
REMARK INTRA:                  -4.465
REMARK UNBOUND:                -5.098
REMARK SMILES CCCCCCCCCCCCCCCCCCCCCCCCCCCCCC(=O)[O-]
REMARK SMILES IDX 16 1 17 2 18 3 19 4 20 5 21 6 22 7 23 8 24 9 25 10 26 11
REMARK SMILES IDX 27 12 28 13 29 14 30 15 31 16 32 17 15 18 14 19 13 20 12 21
REMARK SMILES IDX 11 22 10 23 9 24 8 25 7 26 6 27 5 28 4 29 3 30 2 31 1 32
REMARK H PARENT
REMARK Flexibility Score: inf
ROOT
ATOM      1  C   UNL     1      77.386 -76.010  -0.693  1.00  0.00     0.000 C 
ENDROOT
BRANCH   1   2
ATOM      2  C   UNL     1      76.940 -74.802  -1.536  1.00  0.00     0.000 C 
BRANCH   2   3
ATOM      3  C   UNL     1      77.289 -74.958  -3.027  1.00  0.00     0.000 C 
BRANCH   3   4
ATOM      4  C   UNL     1      77.501 -73.605  -3.733  1.00  0.00     0.000 C 
BRANCH   4   5
ATOM      5  C   UNL     1      76.452 -72.530  -3.389  1.00  0.00     0.000 C 
BRANCH   5   6
ATOM      6  C   UNL     1      75.045 -72.880  -3.906  1.00  0.00     0.000 C 
BRANCH   6   7
ATOM      7  C   UNL     1      73.947 -72.555  -2.879  1.00  0.00     0.000 C 
BRANCH   7   8
ATOM      8  C   UNL     1      74.510 -72.306  -1.469  1.00  0.00     0.000 C 
BRANCH   8   9
ATOM      9  C   UNL     1      73.714 -71.243  -0.695  1.00  0.00     0.000 C 
BRANCH   9  10
ATOM     10  C   UNL     1      72.369 -71.773  -0.166  1.00  0.00     0.000 C 
BRANCH  10  11
ATOM     11  C   UNL     1      71.746 -70.855   0.898  1.00  0.00     0.000 C 
BRANCH  11  12
ATOM     12  C   UNL     1      72.559 -69.565   1.110  1.00  0.00     0.000 C 
BRANCH  12  13
ATOM     13  C   UNL     1      72.160 -68.814   2.395  1.00  0.00     0.006 C 
BRANCH  13  14
ATOM     14  C   UNL     1      71.026 -69.481   3.193  1.00  0.00     0.053 C 
BRANCH  14  15
ATOM     15  C   UNL     1      71.473 -69.928   4.551  1.00  0.00     0.041 C 
ATOM     16  O   UNL     1      70.795 -69.633   5.572  1.00  0.00    -0.550 OA
ATOM     17  O   UNL     1      72.632 -70.682   4.689  1.00  0.00    -0.550 OA
ENDBRANCH  14  15
ENDBRANCH  13  14
ENDBRANCH  12  13
ENDBRANCH  11  12
ENDBRANCH  10  11
ENDBRANCH   9  10
ENDBRANCH   8   9
ENDBRANCH   7   8
ENDBRANCH   6   7
ENDBRANCH   5   6
ENDBRANCH   4   5
ENDBRANCH   3   4
ENDBRANCH   2   3
ENDBRANCH   1   2
BRANCH   1  18
ATOM     18  C   UNL     1      78.318 -76.998  -1.419  1.00  0.00     0.000 C 
BRANCH  18  19
ATOM     19  C   UNL     1      77.971 -78.467  -1.131  1.00  0.00     0.000 C 
BRANCH  19  20
ATOM     20  C   UNL     1      77.257 -79.107  -2.329  1.00  0.00     0.000 C 
BRANCH  20  21
ATOM     21  C   UNL     1      75.865 -79.622  -1.934  1.00  0.00     0.000 C 
BRANCH  21  22
ATOM     22  C   UNL     1      74.831 -78.494  -1.797  1.00  0.00     0.000 C 
BRANCH  22  23
ATOM     23  C   UNL     1      74.716 -77.637  -3.067  1.00  0.00     0.000 C 
BRANCH  23  24
ATOM     24  C   UNL     1      73.883 -76.373  -2.806  1.00  0.00    -0.000 C 
BRANCH  24  25
ATOM     25  C   UNL     1      72.725 -76.619  -1.823  1.00  0.00    -0.000 C 
BRANCH  25  26
ATOM     26  C   UNL     1      72.454 -75.411  -0.910  1.00  0.00    -0.000 C 
BRANCH  26  27
ATOM     27  C   UNL     1      73.496 -75.264   0.214  1.00  0.00    -0.000 C 
BRANCH  27  28
ATOM     28  C   UNL     1      73.745 -76.534   1.048  1.00  0.00    -0.000 C 
BRANCH  28  29
ATOM     29  C   UNL     1      72.669 -76.766   2.120  1.00  0.00    -0.000 C 
BRANCH  29  30
ATOM     30  C   UNL     1      73.306 -77.101   3.474  1.00  0.00    -0.000 C 
BRANCH  30  31
ATOM     31  C   UNL     1      72.410 -76.650   4.632  1.00  0.00    -0.003 C 
ATOM     32  C   UNL     1      73.224 -76.420   5.902  1.00  0.00     0.004 C 
ENDBRANCH  30  31
ENDBRANCH  29  30
ENDBRANCH  28  29
ENDBRANCH  27  28
ENDBRANCH  26  27
ENDBRANCH  25  26
ENDBRANCH  24  25
ENDBRANCH  23  24
ENDBRANCH  22  23
ENDBRANCH  21  22
ENDBRANCH  20  21
ENDBRANCH  19  20
ENDBRANCH  18  19
ENDBRANCH   1  18
TORSDOF 28
ENDMDL
MODEL 7
REMARK VINA RESULT:    -3.815      2.498      6.046
REMARK INTER + INTRA:         -15.159
REMARK INTER:                 -10.802
REMARK INTRA:                  -4.357
REMARK UNBOUND:                -5.098
REMARK SMILES CCCCCCCCCCCCCCCCCCCCCCCCCCCCCC(=O)[O-]
REMARK SMILES IDX 16 1 17 2 18 3 19 4 20 5 21 6 22 7 23 8 24 9 25 10 26 11
REMARK SMILES IDX 27 12 28 13 29 14 30 15 31 16 32 17 15 18 14 19 13 20 12 21
REMARK SMILES IDX 11 22 10 23 9 24 8 25 7 26 6 27 5 28 4 29 3 30 2 31 1 32
REMARK H PARENT
REMARK Flexibility Score: inf
ROOT
ATOM      1  C   UNL     1      76.386 -75.002  -1.091  1.00  0.00     0.000 C 
ENDROOT
BRANCH   1   2
ATOM      2  C   UNL     1      76.527 -74.867  -2.618  1.00  0.00     0.000 C 
BRANCH   2   3
ATOM      3  C   UNL     1      77.142 -73.520  -3.040  1.00  0.00     0.000 C 
BRANCH   3   4
ATOM      4  C   UNL     1      76.239 -72.732  -4.009  1.00  0.00     0.000 C 
BRANCH   4   5
ATOM      5  C   UNL     1      75.315 -71.703  -3.330  1.00  0.00     0.000 C 
BRANCH   5   6
ATOM      6  C   UNL     1      74.004 -72.324  -2.814  1.00  0.00     0.000 C 
BRANCH   6   7
ATOM      7  C   UNL     1      73.278 -73.141  -3.896  1.00  0.00     0.000 C 
BRANCH   7   8
ATOM      8  C   UNL     1      72.831 -74.525  -3.393  1.00  0.00     0.000 C 
BRANCH   8   9
ATOM      9  C   UNL     1      71.311 -74.613  -3.184  1.00  0.00     0.000 C 
BRANCH   9  10
ATOM     10  C   UNL     1      70.929 -75.056  -1.760  1.00  0.00     0.000 C 
BRANCH  10  11
ATOM     11  C   UNL     1      70.505 -73.879  -0.866  1.00  0.00     0.000 C 
BRANCH  11  12
ATOM     12  C   UNL     1      71.704 -73.200  -0.181  1.00  0.00     0.000 C 
BRANCH  12  13
ATOM     13  C   UNL     1      71.450 -71.710   0.123  1.00  0.00     0.006 C 
BRANCH  13  14
ATOM     14  C   UNL     1      72.727 -70.881   0.337  1.00  0.00     0.053 C 
BRANCH  14  15
ATOM     15  C   UNL     1      72.457 -69.599   1.065  1.00  0.00     0.041 C 
ATOM     16  O   UNL     1      73.290 -68.653   1.015  1.00  0.00    -0.550 OA
ATOM     17  O   UNL     1      71.281 -69.443   1.787  1.00  0.00    -0.550 OA
ENDBRANCH  14  15
ENDBRANCH  13  14
ENDBRANCH  12  13
ENDBRANCH  11  12
ENDBRANCH  10  11
ENDBRANCH   9  10
ENDBRANCH   8   9
ENDBRANCH   7   8
ENDBRANCH   6   7
ENDBRANCH   5   6
ENDBRANCH   4   5
ENDBRANCH   3   4
ENDBRANCH   2   3
ENDBRANCH   1   2
BRANCH   1  18
ATOM     18  C   UNL     1      77.260 -76.098  -0.455  1.00  0.00     0.000 C 
BRANCH  18  19
ATOM     19  C   UNL     1      78.299 -76.673  -1.431  1.00  0.00     0.000 C 
BRANCH  19  20
ATOM     20  C   UNL     1      78.405 -78.197  -1.284  1.00  0.00     0.000 C 
BRANCH  20  21
ATOM     21  C   UNL     1      77.026 -78.862  -1.405  1.00  0.00     0.000 C 
BRANCH  21  22
ATOM     22  C   UNL     1      76.360 -78.604  -2.766  1.00  0.00     0.000 C 
BRANCH  22  23
ATOM     23  C   UNL     1      74.886 -79.033  -2.796  1.00  0.00     0.000 C 
BRANCH  23  24
ATOM     24  C   UNL     1      74.225 -78.836  -1.424  1.00  0.00    -0.000 C 
BRANCH  24  25
ATOM     25  C   UNL     1      73.617 -77.433  -1.254  1.00  0.00    -0.000 C 
BRANCH  25  26
ATOM     26  C   UNL     1      73.635 -76.950   0.206  1.00  0.00    -0.000 C 
BRANCH  26  27
ATOM     27  C   UNL     1      72.347 -77.308   0.972  1.00  0.00    -0.000 C 
BRANCH  27  28
ATOM     28  C   UNL     1      72.554 -77.749   2.432  1.00  0.00    -0.000 C 
BRANCH  28  29
ATOM     29  C   UNL     1      72.879 -76.578   3.371  1.00  0.00    -0.000 C 
BRANCH  29  30
ATOM     30  C   UNL     1      73.796 -77.030   4.513  1.00  0.00    -0.000 C 
BRANCH  30  31
ATOM     31  C   UNL     1      73.250 -76.576   5.872  1.00  0.00    -0.003 C 
ATOM     32  C   UNL     1      71.746 -76.325   5.805  1.00  0.00     0.004 C 
ENDBRANCH  30  31
ENDBRANCH  29  30
ENDBRANCH  28  29
ENDBRANCH  27  28
ENDBRANCH  26  27
ENDBRANCH  25  26
ENDBRANCH  24  25
ENDBRANCH  23  24
ENDBRANCH  22  23
ENDBRANCH  21  22
ENDBRANCH  20  21
ENDBRANCH  19  20
ENDBRANCH  18  19
ENDBRANCH   1  18
TORSDOF 28
ENDMDL
MODEL 8
REMARK VINA RESULT:    -3.742      2.206      6.669
REMARK INTER + INTRA:         -14.964
REMARK INTER:                  -9.492
REMARK INTRA:                  -5.472
REMARK UNBOUND:                -5.098
REMARK SMILES CCCCCCCCCCCCCCCCCCCCCCCCCCCCCC(=O)[O-]
REMARK SMILES IDX 16 1 17 2 18 3 19 4 20 5 21 6 22 7 23 8 24 9 25 10 26 11
REMARK SMILES IDX 27 12 28 13 29 14 30 15 31 16 32 17 15 18 14 19 13 20 12 21
REMARK SMILES IDX 11 22 10 23 9 24 8 25 7 26 6 27 5 28 4 29 3 30 2 31 1 32
REMARK H PARENT
REMARK Flexibility Score: inf
ROOT
ATOM      1  C   UNL     1      71.157 -70.455   2.642  1.00  0.00     0.000 C 
ENDROOT
BRANCH   1   2
ATOM      2  C   UNL     1      72.620 -70.253   2.210  1.00  0.00     0.000 C 
BRANCH   2   3
ATOM      3  C   UNL     1      72.750 -69.814   0.741  1.00  0.00     0.000 C 
BRANCH   3   4
ATOM      4  C   UNL     1      73.879 -70.553  -0.004  1.00  0.00     0.000 C 
BRANCH   4   5
ATOM      5  C   UNL     1      73.436 -71.841  -0.724  1.00  0.00     0.000 C 
BRANCH   5   6
ATOM      6  C   UNL     1      74.503 -72.384  -1.691  1.00  0.00     0.000 C 
BRANCH   6   7
ATOM      7  C   UNL     1      74.868 -71.371  -2.789  1.00  0.00     0.000 C 
BRANCH   7   8
ATOM      8  C   UNL     1      75.627 -72.016  -3.962  1.00  0.00     0.000 C 
BRANCH   8   9
ATOM      9  C   UNL     1      75.759 -73.540  -3.813  1.00  0.00     0.000 C 
BRANCH   9  10
ATOM     10  C   UNL     1      77.219 -73.999  -3.647  1.00  0.00     0.000 C 
BRANCH  10  11
ATOM     11  C   UNL     1      77.623 -74.174  -2.174  1.00  0.00     0.000 C 
BRANCH  11  12
ATOM     12  C   UNL     1      78.438 -75.458  -1.937  1.00  0.00     0.000 C 
BRANCH  12  13
ATOM     13  C   UNL     1      77.799 -76.384  -0.885  1.00  0.00     0.006 C 
BRANCH  13  14
ATOM     14  C   UNL     1      78.088 -77.880  -1.097  1.00  0.00     0.053 C 
BRANCH  14  15
ATOM     15  C   UNL     1      77.092 -78.527  -2.010  1.00  0.00     0.041 C 
ATOM     16  O   UNL     1      77.019 -78.178  -3.220  1.00  0.00    -0.550 OA
ATOM     17  O   UNL     1      76.253 -79.524  -1.530  1.00  0.00    -0.550 OA
ENDBRANCH  14  15
ENDBRANCH  13  14
ENDBRANCH  12  13
ENDBRANCH  11  12
ENDBRANCH  10  11
ENDBRANCH   9  10
ENDBRANCH   8   9
ENDBRANCH   7   8
ENDBRANCH   6   7
ENDBRANCH   5   6
ENDBRANCH   4   5
ENDBRANCH   3   4
ENDBRANCH   2   3
ENDBRANCH   1   2
BRANCH   1  18
ATOM     18  C   UNL     1      70.127 -70.368   1.501  1.00  0.00     0.000 C 
BRANCH  18  19
ATOM     19  C   UNL     1      69.352 -71.679   1.296  1.00  0.00     0.000 C 
BRANCH  19  20
ATOM     20  C   UNL     1      70.173 -72.677   0.469  1.00  0.00     0.000 C 
BRANCH  20  21
ATOM     21  C   UNL     1      69.844 -72.561  -1.026  1.00  0.00     0.000 C 
BRANCH  21  22
ATOM     22  C   UNL     1      70.411 -73.726  -1.852  1.00  0.00     0.000 C 
BRANCH  22  23
ATOM     23  C   UNL     1      71.152 -73.255  -3.113  1.00  0.00     0.000 C 
BRANCH  23  24
ATOM     24  C   UNL     1      71.691 -74.450  -3.914  1.00  0.00    -0.000 C 
BRANCH  24  25
ATOM     25  C   UNL     1      71.475 -75.793  -3.195  1.00  0.00    -0.000 C 
BRANCH  25  26
ATOM     26  C   UNL     1      72.706 -76.711  -3.269  1.00  0.00    -0.000 C 
BRANCH  26  27
ATOM     27  C   UNL     1      73.920 -76.150  -2.505  1.00  0.00    -0.000 C 
BRANCH  27  28
ATOM     28  C   UNL     1      74.106 -76.694  -1.078  1.00  0.00    -0.000 C 
BRANCH  28  29
ATOM     29  C   UNL     1      74.148 -75.586  -0.014  1.00  0.00    -0.000 C 
BRANCH  29  30
ATOM     30  C   UNL     1      72.750 -75.319   0.554  1.00  0.00    -0.000 C 
BRANCH  30  31
ATOM     31  C   UNL     1      71.905 -76.598   0.564  1.00  0.00    -0.003 C 
ATOM     32  C   UNL     1      70.458 -76.300   0.945  1.00  0.00     0.004 C 
ENDBRANCH  30  31
ENDBRANCH  29  30
ENDBRANCH  28  29
ENDBRANCH  27  28
ENDBRANCH  26  27
ENDBRANCH  25  26
ENDBRANCH  24  25
ENDBRANCH  23  24
ENDBRANCH  22  23
ENDBRANCH  21  22
ENDBRANCH  20  21
ENDBRANCH  19  20
ENDBRANCH  18  19
ENDBRANCH   1  18
TORSDOF 28
ENDMDL
