MODEL 1
REMARK VINA RESULT:    18.038      0.000      0.000
REMARK INTER + INTRA:          40.357
REMARK INTER:                  41.237
REMARK INTRA:                  -0.881
REMARK UNBOUND:                -0.881
REMARK SMILES CCCCCCCCCCCCCCCCCCCCCCCC(=O)[O-]
REMARK SMILES IDX 13 1 14 2 15 3 16 4 17 5 18 6 19 7 20 8 21 9 22 10 23 11
REMARK SMILES IDX 24 12 25 13 26 14 12 15 11 16 10 17 9 18 8 19 7 20 6 21 5 22
REMARK SMILES IDX 4 23 3 24 2 25 1 26
REMARK H PARENT
REMARK Flexibility Score: inf
ROOT
ATOM      1  C   UNL     1       8.867  17.546  28.107  1.00  0.00     0.000 C 
ENDROOT
BRANCH   1   2
ATOM      2  C   UNL     1       7.547  17.182  27.395  1.00  0.00     0.000 C 
BRANCH   2   3
ATOM      3  C   UNL     1       7.374  17.794  25.992  1.00  0.00     0.000 C 
BRANCH   3   4
ATOM      4  C   UNL     1       6.093  18.629  25.796  1.00  0.00     0.000 C 
BRANCH   4   5
ATOM      5  C   UNL     1       5.530  18.641  24.363  1.00  0.00     0.000 C 
BRANCH   5   6
ATOM      6  C   UNL     1       4.546  19.796  24.117  1.00  0.00     0.000 C 
BRANCH   6   7
ATOM      7  C   UNL     1       4.296  20.053  22.621  1.00  0.00     0.000 C 
BRANCH   7   8
ATOM      8  C   UNL     1       3.581  21.391  22.335  1.00  0.00     0.000 C 
BRANCH   8   9
ATOM      9  C   UNL     1       2.119  21.378  22.807  1.00  0.00     0.000 C 
BRANCH   9  10
ATOM     10  C   UNL     1       1.577  19.943  22.879  1.00  0.00     0.006 C 
BRANCH  10  11
ATOM     11  C   UNL     1       0.741  19.697  24.144  1.00  0.00     0.053 C 
BRANCH  11  12
ATOM     12  C   UNL     1       0.649  18.239  24.481  1.00  0.00     0.041 C 
ATOM     13  O   UNL     1       1.169  17.797  25.542  1.00  0.00    -0.550 OA
ATOM     14  O   UNL     1       0.004  17.365  23.615  1.00  0.00    -0.550 OA
ENDBRANCH  11  12
ENDBRANCH  10  11
ENDBRANCH   9  10
ENDBRANCH   8   9
ENDBRANCH   7   8
ENDBRANCH   6   7
ENDBRANCH   5   6
ENDBRANCH   4   5
ENDBRANCH   3   4
ENDBRANCH   2   3
ENDBRANCH   1   2
BRANCH   1  15
ATOM     15  C   UNL     1      10.055  16.620  27.785  1.00  0.00     0.000 C 
BRANCH  15  16
ATOM     16  C   UNL     1       9.641  15.378  26.981  1.00  0.00     0.000 C 
BRANCH  16  17
ATOM     17  C   UNL     1      10.871  14.681  26.377  1.00  0.00     0.000 C 
BRANCH  17  18
ATOM     18  C   UNL     1      10.720  13.151  26.327  1.00  0.00    -0.000 C 
BRANCH  18  19
ATOM     19  C   UNL     1      11.492  12.449  27.457  1.00  0.00    -0.000 C 
BRANCH  19  20
ATOM     20  C   UNL     1      10.913  11.067  27.803  1.00  0.00    -0.000 C 
BRANCH  20  21
ATOM     21  C   UNL     1       9.905  10.564  26.758  1.00  0.00    -0.000 C 
BRANCH  21  22
ATOM     22  C   UNL     1       9.050   9.421  27.329  1.00  0.00    -0.000 C 
BRANCH  22  23
ATOM     23  C   UNL     1       7.612   9.419  26.779  1.00  0.00    -0.000 C 
BRANCH  23  24
ATOM     24  C   UNL     1       6.502   9.427  27.850  1.00  0.00    -0.000 C 
BRANCH  24  25
ATOM     25  C   UNL     1       5.319  10.364  27.551  1.00  0.00    -0.003 C 
ATOM     26  C   UNL     1       5.583  11.300  26.371  1.00  0.00     0.004 C 
ENDBRANCH  24  25
ENDBRANCH  23  24
ENDBRANCH  22  23
ENDBRANCH  21  22
ENDBRANCH  20  21
ENDBRANCH  19  20
ENDBRANCH  18  19
ENDBRANCH  17  18
ENDBRANCH  16  17
ENDBRANCH  15  16
ENDBRANCH   1  15
TORSDOF 22
ENDMDL
MODEL 2
REMARK VINA RESULT:    18.042      2.386      9.999
REMARK INTER + INTRA:          40.365
REMARK INTER:                  41.440
REMARK INTRA:                  -1.075
REMARK UNBOUND:                -0.881
REMARK SMILES CCCCCCCCCCCCCCCCCCCCCCCC(=O)[O-]
REMARK SMILES IDX 13 1 14 2 15 3 16 4 17 5 18 6 19 7 20 8 21 9 22 10 23 11
REMARK SMILES IDX 24 12 25 13 26 14 12 15 11 16 10 17 9 18 8 19 7 20 6 21 5 22
REMARK SMILES IDX 4 23 3 24 2 25 1 26
REMARK H PARENT
REMARK Flexibility Score: inf
ROOT
ATOM      1  C   UNL     1       8.496  17.503  28.113  1.00  0.00     0.000 C 
ENDROOT
BRANCH   1   2
ATOM      2  C   UNL     1       9.812  16.772  27.771  1.00  0.00     0.000 C 
BRANCH   2   3
ATOM      3  C   UNL     1       9.655  15.547  26.850  1.00  0.00     0.000 C 
BRANCH   3   4
ATOM      4  C   UNL     1      10.913  14.664  26.717  1.00  0.00     0.000 C 
BRANCH   4   5
ATOM      5  C   UNL     1      10.647  13.201  26.320  1.00  0.00     0.000 C 
BRANCH   5   6
ATOM      6  C   UNL     1      11.441  12.196  27.171  1.00  0.00     0.000 C 
BRANCH   6   7
ATOM      7  C   UNL     1      10.547  11.113  27.797  1.00  0.00     0.000 C 
BRANCH   7   8
ATOM      8  C   UNL     1      10.001  10.094  26.772  1.00  0.00     0.000 C 
BRANCH   8   9
ATOM      9  C   UNL     1       9.011   9.107  27.409  1.00  0.00     0.000 C 
BRANCH   9  10
ATOM     10  C   UNL     1       7.613   9.254  26.790  1.00  0.00     0.006 C 
BRANCH  10  11
ATOM     11  C   UNL     1       6.540   9.577  27.839  1.00  0.00     0.053 C 
BRANCH  11  12
ATOM     12  C   UNL     1       5.517  10.540  27.319  1.00  0.00     0.041 C 
ATOM     13  O   UNL     1       4.415  10.683  27.915  1.00  0.00    -0.550 OA
ATOM     14  O   UNL     1       5.771  11.267  26.162  1.00  0.00    -0.550 OA
ENDBRANCH  11  12
ENDBRANCH  10  11
ENDBRANCH   9  10
ENDBRANCH   8   9
ENDBRANCH   7   8
ENDBRANCH   6   7
ENDBRANCH   5   6
ENDBRANCH   4   5
ENDBRANCH   3   4
ENDBRANCH   2   3
ENDBRANCH   1   2
BRANCH   1  15
ATOM     15  C   UNL     1       7.330  17.225  27.147  1.00  0.00     0.000 C 
BRANCH  15  16
ATOM     16  C   UNL     1       7.348  18.137  25.911  1.00  0.00     0.000 C 
BRANCH  16  17
ATOM     17  C   UNL     1       5.931  18.623  25.567  1.00  0.00     0.000 C 
BRANCH  17  18
ATOM     18  C   UNL     1       5.705  18.769  24.053  1.00  0.00    -0.000 C 
BRANCH  18  19
ATOM     19  C   UNL     1       4.338  19.391  23.721  1.00  0.00    -0.000 C 
BRANCH  19  20
ATOM     20  C   UNL     1       4.416  20.432  22.593  1.00  0.00    -0.000 C 
BRANCH  20  21
ATOM     21  C   UNL     1       3.134  21.271  22.465  1.00  0.00    -0.000 C 
BRANCH  21  22
ATOM     22  C   UNL     1       1.885  20.381  22.567  1.00  0.00    -0.000 C 
BRANCH  22  23
ATOM     23  C   UNL     1       1.055  20.660  23.834  1.00  0.00    -0.000 C 
BRANCH  23  24
ATOM     24  C   UNL     1       0.477  19.409  24.525  1.00  0.00    -0.000 C 
BRANCH  24  25
ATOM     25  C   UNL     1      -0.020  18.310  23.568  1.00  0.00    -0.003 C 
ATOM     26  C   UNL     1       0.314  16.900  24.055  1.00  0.00     0.004 C 
ENDBRANCH  24  25
ENDBRANCH  23  24
ENDBRANCH  22  23
ENDBRANCH  21  22
ENDBRANCH  20  21
ENDBRANCH  19  20
ENDBRANCH  18  19
ENDBRANCH  17  18
ENDBRANCH  16  17
ENDBRANCH  15  16
ENDBRANCH   1  15
TORSDOF 22
ENDMDL
MODEL 3
REMARK VINA RESULT:    18.283      2.547      9.909
REMARK INTER + INTRA:          40.917
REMARK INTER:                  42.126
REMARK INTRA:                  -1.209
REMARK UNBOUND:                -0.881
REMARK SMILES CCCCCCCCCCCCCCCCCCCCCCCC(=O)[O-]
REMARK SMILES IDX 13 1 14 2 15 3 16 4 17 5 18 6 19 7 20 8 21 9 22 10 23 11
REMARK SMILES IDX 24 12 25 13 26 14 12 15 11 16 10 17 9 18 8 19 7 20 6 21 5 22
REMARK SMILES IDX 4 23 3 24 2 25 1 26
REMARK H PARENT
REMARK Flexibility Score: inf
ROOT
ATOM      1  C   UNL     1       7.631  17.100  27.029  1.00  0.00     0.000 C 
ENDROOT
BRANCH   1   2
ATOM      2  C   UNL     1       8.983  17.454  27.685  1.00  0.00     0.000 C 
BRANCH   2   3
ATOM      3  C   UNL     1      10.015  16.309  27.706  1.00  0.00     0.000 C 
BRANCH   3   4
ATOM      4  C   UNL     1       9.644  15.079  26.854  1.00  0.00     0.000 C 
BRANCH   4   5
ATOM      5  C   UNL     1      10.838  14.291  26.286  1.00  0.00     0.000 C 
BRANCH   5   6
ATOM      6  C   UNL     1      11.062  12.948  27.000  1.00  0.00     0.000 C 
BRANCH   6   7
ATOM      7  C   UNL     1       9.968  11.916  26.679  1.00  0.00     0.000 C 
BRANCH   7   8
ATOM      8  C   UNL     1      10.428  10.452  26.854  1.00  0.00     0.000 C 
BRANCH   8   9
ATOM      9  C   UNL     1       9.329   9.569  27.463  1.00  0.00     0.000 C 
BRANCH   9  10
ATOM     10  C   UNL     1       8.060   9.596  26.599  1.00  0.00     0.006 C 
BRANCH  10  11
ATOM     11  C   UNL     1       6.789   9.330  27.418  1.00  0.00     0.053 C 
BRANCH  11  12
ATOM     12  C   UNL     1       5.738  10.371  27.180  1.00  0.00     0.041 C 
ATOM     13  O   UNL     1       4.795  10.525  28.003  1.00  0.00    -0.550 OA
ATOM     14  O   UNL     1       5.788  11.160  26.037  1.00  0.00    -0.550 OA
ENDBRANCH  11  12
ENDBRANCH  10  11
ENDBRANCH   9  10
ENDBRANCH   8   9
ENDBRANCH   7   8
ENDBRANCH   6   7
ENDBRANCH   5   6
ENDBRANCH   4   5
ENDBRANCH   3   4
ENDBRANCH   2   3
ENDBRANCH   1   2
BRANCH   1  15
ATOM     15  C   UNL     1       7.176  18.068  25.921  1.00  0.00     0.000 C 
BRANCH  15  16
ATOM     16  C   UNL     1       5.715  18.514  26.081  1.00  0.00     0.000 C 
BRANCH  16  17
ATOM     17  C   UNL     1       5.063  17.831  27.294  1.00  0.00     0.000 C 
BRANCH  17  18
ATOM     18  C   UNL     1       3.534  17.991  27.314  1.00  0.00    -0.000 C 
BRANCH  18  19
ATOM     19  C   UNL     1       2.887  17.605  25.973  1.00  0.00    -0.000 C 
BRANCH  19  20
ATOM     20  C   UNL     1       1.405  18.004  25.891  1.00  0.00    -0.000 C 
BRANCH  20  21
ATOM     21  C   UNL     1       0.620  17.180  24.859  1.00  0.00    -0.000 C 
BRANCH  21  22
ATOM     22  C   UNL     1       0.064  18.082  23.746  1.00  0.00    -0.000 C 
BRANCH  22  23
ATOM     23  C   UNL     1       0.652  19.505  23.781  1.00  0.00    -0.000 C 
BRANCH  23  24
ATOM     24  C   UNL     1       1.940  19.701  22.957  1.00  0.00    -0.000 C 
BRANCH  24  25
ATOM     25  C   UNL     1       2.413  21.160  22.829  1.00  0.00    -0.003 C 
ATOM     26  C   UNL     1       3.860  21.278  22.351  1.00  0.00     0.004 C 
ENDBRANCH  24  25
ENDBRANCH  23  24
ENDBRANCH  22  23
ENDBRANCH  21  22
ENDBRANCH  20  21
ENDBRANCH  19  20
ENDBRANCH  18  19
ENDBRANCH  17  18
ENDBRANCH  16  17
ENDBRANCH  15  16
ENDBRANCH   1  15
TORSDOF 22
ENDMDL
MODEL 4
REMARK VINA RESULT:    18.910      1.818      2.629
REMARK INTER + INTRA:          42.350
REMARK INTER:                  43.501
REMARK INTRA:                  -1.151
REMARK UNBOUND:                -0.881
REMARK SMILES CCCCCCCCCCCCCCCCCCCCCCCC(=O)[O-]
REMARK SMILES IDX 13 1 14 2 15 3 16 4 17 5 18 6 19 7 20 8 21 9 22 10 23 11
REMARK SMILES IDX 24 12 25 13 26 14 12 15 11 16 10 17 9 18 8 19 7 20 6 21 5 22
REMARK SMILES IDX 4 23 3 24 2 25 1 26
REMARK H PARENT
REMARK Flexibility Score: inf
ROOT
ATOM      1  C   UNL     1       8.706  17.716  27.682  1.00  0.00     0.000 C 
ENDROOT
BRANCH   1   2
ATOM      2  C   UNL     1       7.485  17.400  26.792  1.00  0.00     0.000 C 
BRANCH   2   3
ATOM      3  C   UNL     1       6.120  17.507  27.499  1.00  0.00     0.000 C 
BRANCH   3   4
ATOM      4  C   UNL     1       5.022  18.231  26.694  1.00  0.00     0.000 C 
BRANCH   4   5
ATOM      5  C   UNL     1       3.580  17.954  27.157  1.00  0.00     0.000 C 
BRANCH   5   6
ATOM      6  C   UNL     1       2.678  17.437  26.024  1.00  0.00     0.000 C 
BRANCH   6   7
ATOM      7  C   UNL     1       1.430  18.311  25.815  1.00  0.00     0.000 C 
BRANCH   7   8
ATOM      8  C   UNL     1       0.481  17.781  24.718  1.00  0.00     0.000 C 
BRANCH   8   9
ATOM      9  C   UNL     1       0.491  18.670  23.465  1.00  0.00     0.000 C 
BRANCH   9  10
ATOM     10  C   UNL     1       1.365  19.915  23.682  1.00  0.00     0.006 C 
BRANCH  10  11
ATOM     11  C   UNL     1       2.102  20.340  22.404  1.00  0.00     0.053 C 
BRANCH  11  12
ATOM     12  C   UNL     1       3.530  20.705  22.674  1.00  0.00     0.041 C 
ATOM     13  O   UNL     1       4.384  19.806  22.907  1.00  0.00    -0.550 OA
ATOM     14  O   UNL     1       3.916  22.039  22.689  1.00  0.00    -0.550 OA
ENDBRANCH  11  12
ENDBRANCH  10  11
ENDBRANCH   9  10
ENDBRANCH   8   9
ENDBRANCH   7   8
ENDBRANCH   6   7
ENDBRANCH   5   6
ENDBRANCH   4   5
ENDBRANCH   3   4
ENDBRANCH   2   3
ENDBRANCH   1   2
BRANCH   1  15
ATOM     15  C   UNL     1       9.784  16.616  27.719  1.00  0.00     0.000 C 
BRANCH  15  16
ATOM     16  C   UNL     1       9.452  15.426  26.806  1.00  0.00     0.000 C 
BRANCH  16  17
ATOM     17  C   UNL     1      10.732  14.696  26.370  1.00  0.00     0.000 C 
BRANCH  17  18
ATOM     18  C   UNL     1      11.008  13.433  27.203  1.00  0.00    -0.000 C 
BRANCH  18  19
ATOM     19  C   UNL     1      10.783  12.140  26.400  1.00  0.00    -0.000 C 
BRANCH  19  20
ATOM     20  C   UNL     1      10.542  10.917  27.299  1.00  0.00    -0.000 C 
BRANCH  20  21
ATOM     21  C   UNL     1       9.576   9.898  26.674  1.00  0.00    -0.000 C 
BRANCH  21  22
ATOM     22  C   UNL     1       8.769   9.171  27.761  1.00  0.00    -0.000 C 
BRANCH  22  23
ATOM     23  C   UNL     1       7.313   8.898  27.343  1.00  0.00    -0.000 C 
BRANCH  23  24
ATOM     24  C   UNL     1       6.244   9.627  28.182  1.00  0.00    -0.000 C 
BRANCH  24  25
ATOM     25  C   UNL     1       5.162  10.355  27.365  1.00  0.00    -0.003 C 
ATOM     26  C   UNL     1       5.738  11.410  26.420  1.00  0.00     0.004 C 
ENDBRANCH  24  25
ENDBRANCH  23  24
ENDBRANCH  22  23
ENDBRANCH  21  22
ENDBRANCH  20  21
ENDBRANCH  19  20
ENDBRANCH  18  19
ENDBRANCH  17  18
ENDBRANCH  16  17
ENDBRANCH  15  16
ENDBRANCH   1  15
TORSDOF 22
ENDMDL
MODEL 5
REMARK VINA RESULT:    19.098      2.753      9.460
REMARK INTER + INTRA:          42.779
REMARK INTER:                  43.169
REMARK INTRA:                  -0.390
REMARK UNBOUND:                -0.881
REMARK SMILES CCCCCCCCCCCCCCCCCCCCCCCC(=O)[O-]
REMARK SMILES IDX 13 1 14 2 15 3 16 4 17 5 18 6 19 7 20 8 21 9 22 10 23 11
REMARK SMILES IDX 24 12 25 13 26 14 12 15 11 16 10 17 9 18 8 19 7 20 6 21 5 22
REMARK SMILES IDX 4 23 3 24 2 25 1 26
REMARK H PARENT
REMARK Flexibility Score: inf
ROOT
ATOM      1  C   UNL     1       9.885  16.752  28.002  1.00  0.00     0.000 C 
ENDROOT
BRANCH   1   2
ATOM      2  C   UNL     1      10.212  15.947  26.726  1.00  0.00     0.000 C 
BRANCH   2   3
ATOM      3  C   UNL     1       9.880  14.444  26.801  1.00  0.00     0.000 C 
BRANCH   3   4
ATOM      4  C   UNL     1      11.036  13.499  26.416  1.00  0.00     0.000 C 
BRANCH   4   5
ATOM      5  C   UNL     1      11.679  12.739  27.591  1.00  0.00     0.000 C 
BRANCH   5   6
ATOM      6  C   UNL     1      11.187  11.287  27.705  1.00  0.00     0.000 C 
BRANCH   6   7
ATOM      7  C   UNL     1       9.966  11.004  26.814  1.00  0.00     0.000 C 
BRANCH   7   8
ATOM      8  C   UNL     1       9.516   9.527  26.834  1.00  0.00     0.000 C 
BRANCH   8   9
ATOM      9  C   UNL     1       8.613   9.213  28.037  1.00  0.00     0.000 C 
BRANCH   9  10
ATOM     10  C   UNL     1       7.177   8.914  27.583  1.00  0.00     0.006 C 
BRANCH  10  11
ATOM     11  C   UNL     1       6.758   9.763  26.374  1.00  0.00     0.053 C 
BRANCH  11  12
ATOM     12  C   UNL     1       5.728  10.789  26.738  1.00  0.00     0.041 C 
ATOM     13  O   UNL     1       5.630  11.856  26.074  1.00  0.00    -0.550 OA
ATOM     14  O   UNL     1       4.887  10.576  27.824  1.00  0.00    -0.550 OA
ENDBRANCH  11  12
ENDBRANCH  10  11
ENDBRANCH   9  10
ENDBRANCH   8   9
ENDBRANCH   7   8
ENDBRANCH   6   7
ENDBRANCH   5   6
ENDBRANCH   4   5
ENDBRANCH   3   4
ENDBRANCH   2   3
ENDBRANCH   1   2
BRANCH   1  15
ATOM     15  C   UNL     1       8.504  17.433  28.002  1.00  0.00     0.000 C 
BRANCH  15  16
ATOM     16  C   UNL     1       7.661  17.073  26.769  1.00  0.00     0.000 C 
BRANCH  16  17
ATOM     17  C   UNL     1       7.162  18.340  26.056  1.00  0.00     0.000 C 
BRANCH  17  18
ATOM     18  C   UNL     1       5.630  18.469  26.078  1.00  0.00    -0.000 C 
BRANCH  18  19
ATOM     19  C   UNL     1       5.005  17.816  27.324  1.00  0.00    -0.000 C 
BRANCH  19  20
ATOM     20  C   UNL     1       3.472  17.929  27.348  1.00  0.00    -0.000 C 
BRANCH  20  21
ATOM     21  C   UNL     1       2.853  17.961  25.942  1.00  0.00    -0.000 C 
BRANCH  21  22
ATOM     22  C   UNL     1       1.318  17.934  26.019  1.00  0.00    -0.000 C 
BRANCH  22  23
ATOM     23  C   UNL     1       0.661  19.098  25.256  1.00  0.00    -0.000 C 
BRANCH  23  24
ATOM     24  C   UNL     1       0.132  18.744  23.851  1.00  0.00    -0.000 C 
BRANCH  24  25
ATOM     25  C   UNL     1       0.390  17.293  23.408  1.00  0.00    -0.003 C 
ATOM     26  C   UNL     1      -0.288  16.264  24.313  1.00  0.00     0.004 C 
ENDBRANCH  24  25
ENDBRANCH  23  24
ENDBRANCH  22  23
ENDBRANCH  21  22
ENDBRANCH  20  21
ENDBRANCH  19  20
ENDBRANCH  18  19
ENDBRANCH  17  18
ENDBRANCH  16  17
ENDBRANCH  15  16
ENDBRANCH   1  15
TORSDOF 22
ENDMDL
