MODEL 1
REMARK VINA RESULT:    -2.876      0.000      0.000
REMARK INTER + INTRA:          -6.659
REMARK INTER:                  -4.893
REMARK INTRA:                  -1.766
REMARK UNBOUND:                -1.766
REMARK SMILES CCCCCCCCCCCCCC(=O)[O-]
REMARK SMILES IDX 8 1 9 2 10 3 11 4 12 5 13 6 14 7 15 8 16 9 7 10 6 11 5 12
REMARK SMILES IDX 4 13 3 14 2 15 1 16
REMARK H PARENT
REMARK Flexibility Score: inf
ROOT
ATOM      1  C   UNL     1     143.823 139.887 144.853  1.00  0.00     0.000 C 
ENDROOT
BRANCH   1   2
ATOM      2  C   UNL     1     142.392 139.931 145.429  1.00  0.00     0.000 C 
BRANCH   2   3
ATOM      3  C   UNL     1     141.767 141.333 145.320  1.00  0.00     0.000 C 
BRANCH   3   4
ATOM      4  C   UNL     1     140.912 141.693 146.545  1.00  0.00     0.000 C 
BRANCH   4   5
ATOM      5  C   UNL     1     141.546 142.806 147.398  1.00  0.00     0.006 C 
BRANCH   5   6
ATOM      6  C   UNL     1     142.529 142.250 148.436  1.00  0.00     0.053 C 
BRANCH   6   7
ATOM      7  C   UNL     1     141.922 141.135 149.231  1.00  0.00     0.041 C 
ATOM      8  O   UNL     1     142.445 139.988 149.218  1.00  0.00    -0.550 OA
ATOM      9  O   UNL     1     140.799 141.369 150.015  1.00  0.00    -0.550 OA
ENDBRANCH   6   7
ENDBRANCH   5   6
ENDBRANCH   4   5
ENDBRANCH   3   4
ENDBRANCH   2   3
ENDBRANCH   1   2
BRANCH   1  10
ATOM     10  C   UNL     1     144.726 141.024 145.364  1.00  0.00     0.000 C 
BRANCH  10  11
ATOM     11  C   UNL     1     145.959 141.251 144.475  1.00  0.00    -0.000 C 
BRANCH  11  12
ATOM     12  C   UNL     1     145.907 142.590 143.724  1.00  0.00    -0.000 C 
BRANCH  12  13
ATOM     13  C   UNL     1     144.469 143.037 143.409  1.00  0.00    -0.000 C 
BRANCH  13  14
ATOM     14  C   UNL     1     144.225 144.517 143.774  1.00  0.00    -0.000 C 
BRANCH  14  15
ATOM     15  C   UNL     1     143.529 144.709 145.132  1.00  0.00    -0.003 C 
ATOM     16  C   UNL     1     144.512 144.862 146.291  1.00  0.00     0.004 C 
ENDBRANCH  14  15
ENDBRANCH  13  14
ENDBRANCH  12  13
ENDBRANCH  11  12
ENDBRANCH  10  11
ENDBRANCH   1  10
TORSDOF 12
ENDMDL
MODEL 2
REMARK VINA RESULT:    -2.841      3.245      7.042
REMARK INTER + INTRA:          -6.600
REMARK INTER:                  -5.346
REMARK INTRA:                  -1.254
REMARK UNBOUND:                -1.766
REMARK SMILES CCCCCCCCCCCCCC(=O)[O-]
REMARK SMILES IDX 8 1 9 2 10 3 11 4 12 5 13 6 14 7 15 8 16 9 7 10 6 11 5 12
REMARK SMILES IDX 4 13 3 14 2 15 1 16
REMARK H PARENT
REMARK Flexibility Score: inf
ROOT
ATOM      1  C   UNL     1     141.636 143.051 149.990  1.00  0.00     0.000 C 
ENDROOT
BRANCH   1   2
ATOM      2  C   UNL     1     141.349 141.566 149.681  1.00  0.00     0.000 C 
BRANCH   2   3
ATOM      3  C   UNL     1     141.860 141.156 148.289  1.00  0.00     0.000 C 
BRANCH   3   4
ATOM      4  C   UNL     1     141.310 142.054 147.171  1.00  0.00     0.000 C 
BRANCH   4   5
ATOM      5  C   UNL     1     141.374 141.379 145.789  1.00  0.00     0.006 C 
BRANCH   5   6
ATOM      6  C   UNL     1     142.382 140.224 145.757  1.00  0.00     0.053 C 
BRANCH   6   7
ATOM      7  C   UNL     1     143.664 140.625 145.093  1.00  0.00     0.041 C 
ATOM      8  O   UNL     1     143.983 140.132 143.979  1.00  0.00    -0.550 OA
ATOM      9  O   UNL     1     144.490 141.570 145.688  1.00  0.00    -0.550 OA
ENDBRANCH   6   7
ENDBRANCH   5   6
ENDBRANCH   4   5
ENDBRANCH   3   4
ENDBRANCH   2   3
ENDBRANCH   1   2
BRANCH   1  10
ATOM     10  C   UNL     1     140.720 143.640 151.077  1.00  0.00     0.000 C 
BRANCH  10  11
ATOM     11  C   UNL     1     140.020 142.557 151.915  1.00  0.00    -0.000 C 
BRANCH  11  12
ATOM     12  C   UNL     1     140.434 142.595 153.394  1.00  0.00    -0.000 C 
BRANCH  12  13
ATOM     13  C   UNL     1     141.332 141.408 153.788  1.00  0.00    -0.000 C 
BRANCH  13  14
ATOM     14  C   UNL     1     142.779 141.577 153.279  1.00  0.00    -0.000 C 
BRANCH  14  15
ATOM     15  C   UNL     1     143.465 140.246 152.927  1.00  0.00    -0.003 C 
ATOM     16  C   UNL     1     144.162 140.273 151.569  1.00  0.00     0.004 C 
ENDBRANCH  14  15
ENDBRANCH  13  14
ENDBRANCH  12  13
ENDBRANCH  11  12
ENDBRANCH  10  11
ENDBRANCH   1  10
TORSDOF 12
ENDMDL
MODEL 3
REMARK VINA RESULT:    -2.831      3.794      6.366
REMARK INTER + INTRA:          -6.583
REMARK INTER:                  -5.069
REMARK INTRA:                  -1.514
REMARK UNBOUND:                -1.766
REMARK SMILES CCCCCCCCCCCCCC(=O)[O-]
REMARK SMILES IDX 8 1 9 2 10 3 11 4 12 5 13 6 14 7 15 8 16 9 7 10 6 11 5 12
REMARK SMILES IDX 4 13 3 14 2 15 1 16
REMARK H PARENT
REMARK Flexibility Score: inf
ROOT
ATOM      1  C   UNL     1     142.646 144.418 146.967  1.00  0.00     0.000 C 
ENDROOT
BRANCH   1   2
ATOM      2  C   UNL     1     142.299 145.258 145.718  1.00  0.00     0.000 C 
BRANCH   2   3
ATOM      3  C   UNL     1     143.289 145.016 144.565  1.00  0.00     0.000 C 
BRANCH   3   4
ATOM      4  C   UNL     1     143.861 143.590 144.570  1.00  0.00     0.000 C 
BRANCH   4   5
ATOM      5  C   UNL     1     144.889 143.366 143.447  1.00  0.00     0.006 C 
BRANCH   5   6
ATOM      6  C   UNL     1     144.479 144.057 142.141  1.00  0.00     0.053 C 
BRANCH   6   7
ATOM      7  C   UNL     1     145.592 144.052 141.138  1.00  0.00     0.041 C 
ATOM      8  O   UNL     1     145.826 145.078 140.444  1.00  0.00    -0.550 OA
ATOM      9  O   UNL     1     146.393 142.927 140.992  1.00  0.00    -0.550 OA
ENDBRANCH   6   7
ENDBRANCH   5   6
ENDBRANCH   4   5
ENDBRANCH   3   4
ENDBRANCH   2   3
ENDBRANCH   1   2
BRANCH   1  10
ATOM     10  C   UNL     1     141.437 143.674 147.560  1.00  0.00     0.000 C 
BRANCH  10  11
ATOM     11  C   UNL     1     141.533 142.149 147.385  1.00  0.00    -0.000 C 
BRANCH  11  12
ATOM     12  C   UNL     1     140.781 141.649 146.142  1.00  0.00    -0.000 C 
BRANCH  12  13
ATOM     13  C   UNL     1     141.664 140.788 145.222  1.00  0.00    -0.000 C 
BRANCH  13  14
ATOM     14  C   UNL     1     142.680 139.941 146.015  1.00  0.00    -0.000 C 
BRANCH  14  15
ATOM     15  C   UNL     1     144.112 140.020 145.460  1.00  0.00    -0.003 C 
ATOM     16  C   UNL     1     145.113 140.588 146.464  1.00  0.00     0.004 C 
ENDBRANCH  14  15
ENDBRANCH  13  14
ENDBRANCH  12  13
ENDBRANCH  11  12
ENDBRANCH  10  11
ENDBRANCH   1  10
TORSDOF 12
ENDMDL
MODEL 4
REMARK VINA RESULT:    -2.819      3.881      6.187
REMARK INTER + INTRA:          -6.562
REMARK INTER:                  -5.116
REMARK INTRA:                  -1.446
REMARK UNBOUND:                -1.766
REMARK SMILES CCCCCCCCCCCCCC(=O)[O-]
REMARK SMILES IDX 8 1 9 2 10 3 11 4 12 5 13 6 14 7 15 8 16 9 7 10 6 11 5 12
REMARK SMILES IDX 4 13 3 14 2 15 1 16
REMARK H PARENT
REMARK Flexibility Score: inf
ROOT
ATOM      1  C   UNL     1     145.128 142.556 144.710  1.00  0.00     0.000 C 
ENDROOT
BRANCH   1   2
ATOM      2  C   UNL     1     144.322 142.962 143.458  1.00  0.00     0.000 C 
BRANCH   2   3
ATOM      3  C   UNL     1     144.180 144.489 143.331  1.00  0.00     0.000 C 
BRANCH   3   4
ATOM      4  C   UNL     1     145.532 145.215 143.402  1.00  0.00     0.000 C 
BRANCH   4   5
ATOM      5  C   UNL     1     146.175 145.398 142.016  1.00  0.00     0.006 C 
BRANCH   5   6
ATOM      6  C   UNL     1     147.430 144.534 141.841  1.00  0.00     0.053 C 
BRANCH   6   7
ATOM      7  C   UNL     1     147.116 143.228 141.178  1.00  0.00     0.041 C 
ATOM      8  O   UNL     1     147.667 142.166 141.572  1.00  0.00    -0.550 OA
ATOM      9  O   UNL     1     146.188 143.177 140.145  1.00  0.00    -0.550 OA
ENDBRANCH   6   7
ENDBRANCH   5   6
ENDBRANCH   4   5
ENDBRANCH   3   4
ENDBRANCH   2   3
ENDBRANCH   1   2
BRANCH   1  10
ATOM     10  C   UNL     1     145.619 141.098 144.678  1.00  0.00     0.000 C 
BRANCH  10  11
ATOM     11  C   UNL     1     144.466 140.081 144.711  1.00  0.00    -0.000 C 
BRANCH  11  12
ATOM     12  C   UNL     1     143.417 140.413 145.784  1.00  0.00    -0.000 C 
BRANCH  12  13
ATOM     13  C   UNL     1     142.000 140.560 145.201  1.00  0.00    -0.000 C 
BRANCH  13  14
ATOM     14  C   UNL     1     141.114 141.495 146.052  1.00  0.00    -0.000 C 
BRANCH  14  15
ATOM     15  C   UNL     1     141.510 142.977 145.949  1.00  0.00    -0.003 C 
ATOM     16  C   UNL     1     141.804 143.613 147.307  1.00  0.00     0.004 C 
ENDBRANCH  14  15
ENDBRANCH  13  14
ENDBRANCH  12  13
ENDBRANCH  11  12
ENDBRANCH  10  11
ENDBRANCH   1  10
TORSDOF 12
ENDMDL
MODEL 5
REMARK VINA RESULT:    -2.682      2.433      4.249
REMARK INTER + INTRA:          -6.330
REMARK INTER:                  -5.151
REMARK INTRA:                  -1.179
REMARK UNBOUND:                -1.766
REMARK SMILES CCCCCCCCCCCCCC(=O)[O-]
REMARK SMILES IDX 8 1 9 2 10 3 11 4 12 5 13 6 14 7 15 8 16 9 7 10 6 11 5 12
REMARK SMILES IDX 4 13 3 14 2 15 1 16
REMARK H PARENT
REMARK Flexibility Score: inf
ROOT
ATOM      1  C   UNL     1     141.717 142.904 146.390  1.00  0.00     0.000 C 
ENDROOT
BRANCH   1   2
ATOM      2  C   UNL     1     141.329 143.263 147.841  1.00  0.00     0.000 C 
BRANCH   2   3
ATOM      3  C   UNL     1     142.142 142.462 148.872  1.00  0.00     0.000 C 
BRANCH   3   4
ATOM      4  C   UNL     1     141.249 141.746 149.898  1.00  0.00     0.000 C 
BRANCH   4   5
ATOM      5  C   UNL     1     141.412 142.317 151.318  1.00  0.00     0.006 C 
BRANCH   5   6
ATOM      6  C   UNL     1     140.237 143.218 151.717  1.00  0.00     0.053 C 
BRANCH   6   7
ATOM      7  C   UNL     1     140.251 143.530 153.183  1.00  0.00     0.041 C 
ATOM      8  O   UNL     1     140.454 144.709 153.578  1.00  0.00    -0.550 OA
ATOM      9  O   UNL     1     140.006 142.526 154.111  1.00  0.00    -0.550 OA
ENDBRANCH   6   7
ENDBRANCH   5   6
ENDBRANCH   4   5
ENDBRANCH   3   4
ENDBRANCH   2   3
ENDBRANCH   1   2
BRANCH   1  10
ATOM     10  C   UNL     1     140.938 141.703 145.826  1.00  0.00     0.000 C 
BRANCH  10  11
ATOM     11  C   UNL     1     141.858 140.625 145.229  1.00  0.00    -0.000 C 
BRANCH  11  12
ATOM     12  C   UNL     1     142.779 139.987 146.280  1.00  0.00    -0.000 C 
BRANCH  12  13
ATOM     13  C   UNL     1     144.270 140.164 145.946  1.00  0.00    -0.000 C 
BRANCH  13  14
ATOM     14  C   UNL     1     144.493 140.594 144.480  1.00  0.00    -0.000 C 
BRANCH  14  15
ATOM     15  C   UNL     1     145.221 141.941 144.338  1.00  0.00    -0.003 C 
ATOM     16  C   UNL     1     144.413 142.978 143.561  1.00  0.00     0.004 C 
ENDBRANCH  14  15
ENDBRANCH  13  14
ENDBRANCH  12  13
ENDBRANCH  11  12
ENDBRANCH  10  11
ENDBRANCH   1  10
TORSDOF 12
ENDMDL
MODEL 6
REMARK VINA RESULT:    -2.664      3.610      6.053
REMARK INTER + INTRA:          -6.299
REMARK INTER:                  -5.144
REMARK INTRA:                  -1.155
REMARK UNBOUND:                -1.766
REMARK SMILES CCCCCCCCCCCCCC(=O)[O-]
REMARK SMILES IDX 8 1 9 2 10 3 11 4 12 5 13 6 14 7 15 8 16 9 7 10 6 11 5 12
REMARK SMILES IDX 4 13 3 14 2 15 1 16
REMARK H PARENT
REMARK Flexibility Score: inf
ROOT
ATOM      1  C   UNL     1     144.229 141.305 150.821  1.00  0.00     0.000 C 
ENDROOT
BRANCH   1   2
ATOM      2  C   UNL     1     144.531 140.797 152.247  1.00  0.00     0.000 C 
BRANCH   2   3
ATOM      3  C   UNL     1     143.248 140.558 153.061  1.00  0.00     0.000 C 
BRANCH   3   4
ATOM      4  C   UNL     1     142.336 141.795 153.097  1.00  0.00     0.000 C 
BRANCH   4   5
ATOM      5  C   UNL     1     141.069 141.565 153.941  1.00  0.00     0.006 C 
BRANCH   5   6
ATOM      6  C   UNL     1     139.984 142.610 153.651  1.00  0.00     0.053 C 
BRANCH   6   7
ATOM      7  C   UNL     1     140.439 143.993 154.006  1.00  0.00     0.041 C 
ATOM      8  O   UNL     1     140.558 144.872 153.110  1.00  0.00    -0.550 OA
ATOM      9  O   UNL     1     140.698 144.322 155.330  1.00  0.00    -0.550 OA
ENDBRANCH   6   7
ENDBRANCH   5   6
ENDBRANCH   4   5
ENDBRANCH   3   4
ENDBRANCH   2   3
ENDBRANCH   1   2
BRANCH   1  10
ATOM     10  C   UNL     1     144.165 140.182 149.771  1.00  0.00     0.000 C 
BRANCH  10  11
ATOM     11  C   UNL     1     142.865 140.207 148.950  1.00  0.00    -0.000 C 
BRANCH  11  12
ATOM     12  C   UNL     1     141.828 141.188 149.517  1.00  0.00    -0.000 C 
BRANCH  12  13
ATOM     13  C   UNL     1     141.331 142.197 148.467  1.00  0.00    -0.000 C 
BRANCH  13  14
ATOM     14  C   UNL     1     142.255 142.257 147.233  1.00  0.00    -0.000 C 
BRANCH  14  15
ATOM     15  C   UNL     1     141.542 141.911 145.915  1.00  0.00    -0.003 C 
ATOM     16  C   UNL     1     142.058 140.624 145.276  1.00  0.00     0.004 C 
ENDBRANCH  14  15
ENDBRANCH  13  14
ENDBRANCH  12  13
ENDBRANCH  11  12
ENDBRANCH  10  11
ENDBRANCH   1  10
TORSDOF 12
ENDMDL
MODEL 7
REMARK VINA RESULT:    -2.657      2.526      4.635
REMARK INTER + INTRA:          -6.287
REMARK INTER:                  -4.395
REMARK INTRA:                  -1.893
REMARK UNBOUND:                -1.766
REMARK SMILES CCCCCCCCCCCCCC(=O)[O-]
REMARK SMILES IDX 8 1 9 2 10 3 11 4 12 5 13 6 14 7 15 8 16 9 7 10 6 11 5 12
REMARK SMILES IDX 4 13 3 14 2 15 1 16
REMARK H PARENT
REMARK Flexibility Score: inf
ROOT
ATOM      1  C   UNL     1     142.563 144.032 147.233  1.00  0.00     0.000 C 
ENDROOT
BRANCH   1   2
ATOM      2  C   UNL     1     142.003 143.739 148.642  1.00  0.00     0.000 C 
BRANCH   2   3
ATOM      3  C   UNL     1     142.960 142.870 149.476  1.00  0.00     0.000 C 
BRANCH   3   4
ATOM      4  C   UNL     1     142.298 141.574 149.970  1.00  0.00     0.000 C 
BRANCH   4   5
ATOM      5  C   UNL     1     143.323 140.560 150.509  1.00  0.00     0.006 C 
BRANCH   5   6
ATOM      6  C   UNL     1     144.418 141.233 151.345  1.00  0.00     0.053 C 
BRANCH   6   7
ATOM      7  C   UNL     1     144.209 141.013 152.812  1.00  0.00     0.041 C 
ATOM      8  O   UNL     1     143.225 141.537 153.399  1.00  0.00    -0.550 OA
ATOM      9  O   UNL     1     145.081 140.200 153.525  1.00  0.00    -0.550 OA
ENDBRANCH   6   7
ENDBRANCH   5   6
ENDBRANCH   4   5
ENDBRANCH   3   4
ENDBRANCH   2   3
ENDBRANCH   1   2
BRANCH   1  10
ATOM     10  C   UNL     1     141.714 143.431 146.099  1.00  0.00     0.000 C 
BRANCH  10  11
ATOM     11  C   UNL     1     141.017 142.122 146.506  1.00  0.00    -0.000 C 
BRANCH  11  12
ATOM     12  C   UNL     1     141.112 141.040 145.420  1.00  0.00    -0.000 C 
BRANCH  12  13
ATOM     13  C   UNL     1     142.490 140.357 145.382  1.00  0.00    -0.000 C 
BRANCH  13  14
ATOM     14  C   UNL     1     142.972 139.939 146.787  1.00  0.00    -0.000 C 
BRANCH  14  15
ATOM     15  C   UNL     1     144.498 140.021 146.963  1.00  0.00    -0.003 C 
ATOM     16  C   UNL     1     145.054 141.421 146.714  1.00  0.00     0.004 C 
ENDBRANCH  14  15
ENDBRANCH  13  14
ENDBRANCH  12  13
ENDBRANCH  11  12
ENDBRANCH  10  11
ENDBRANCH   1  10
TORSDOF 12
ENDMDL
MODEL 8
REMARK VINA RESULT:    -2.623      3.482      6.905
REMARK INTER + INTRA:          -6.230
REMARK INTER:                  -5.310
REMARK INTRA:                  -0.920
REMARK UNBOUND:                -1.766
REMARK SMILES CCCCCCCCCCCCCC(=O)[O-]
REMARK SMILES IDX 8 1 9 2 10 3 11 4 12 5 13 6 14 7 15 8 16 9 7 10 6 11 5 12
REMARK SMILES IDX 4 13 3 14 2 15 1 16
REMARK H PARENT
REMARK Flexibility Score: inf
ROOT
ATOM      1  C   UNL     1     141.703 143.298 148.903  1.00  0.00     0.000 C 
ENDROOT
BRANCH   1   2
ATOM      2  C   UNL     1     141.441 143.183 147.386  1.00  0.00     0.000 C 
BRANCH   2   3
ATOM      3  C   UNL     1     141.049 141.754 146.973  1.00  0.00     0.000 C 
BRANCH   3   4
ATOM      4  C   UNL     1     141.553 141.388 145.568  1.00  0.00     0.000 C 
BRANCH   4   5
ATOM      5  C   UNL     1     142.451 140.138 145.574  1.00  0.00     0.006 C 
BRANCH   5   6
ATOM      6  C   UNL     1     143.175 139.952 146.913  1.00  0.00     0.053 C 
BRANCH   6   7
ATOM      7  C   UNL     1     144.461 140.719 146.959  1.00  0.00     0.041 C 
ATOM      8  O   UNL     1     144.682 141.532 147.896  1.00  0.00    -0.550 OA
ATOM      9  O   UNL     1     145.430 140.511 145.986  1.00  0.00    -0.550 OA
ENDBRANCH   6   7
ENDBRANCH   5   6
ENDBRANCH   4   5
ENDBRANCH   3   4
ENDBRANCH   2   3
ENDBRANCH   1   2
BRANCH   1  10
ATOM     10  C   UNL     1     141.331 142.028 149.687  1.00  0.00     0.000 C 
BRANCH  10  11
ATOM     11  C   UNL     1     141.340 142.244 151.210  1.00  0.00    -0.000 C 
BRANCH  11  12
ATOM     12  C   UNL     1     139.937 142.148 151.827  1.00  0.00    -0.000 C 
BRANCH  12  13
ATOM     13  C   UNL     1     139.970 141.761 153.316  1.00  0.00    -0.000 C 
BRANCH  13  14
ATOM     14  C   UNL     1     140.736 142.792 154.170  1.00  0.00    -0.000 C 
BRANCH  14  15
ATOM     15  C   UNL     1     139.875 143.990 154.606  1.00  0.00    -0.003 C 
ATOM     16  C   UNL     1     140.641 145.311 154.601  1.00  0.00     0.004 C 
ENDBRANCH  14  15
ENDBRANCH  13  14
ENDBRANCH  12  13
ENDBRANCH  11  12
ENDBRANCH  10  11
ENDBRANCH   1  10
TORSDOF 12
ENDMDL
MODEL 9
REMARK VINA RESULT:    -2.525      3.553      5.789
REMARK INTER + INTRA:          -6.062
REMARK INTER:                  -4.423
REMARK INTRA:                  -1.640
REMARK UNBOUND:                -1.766
REMARK SMILES CCCCCCCCCCCCCC(=O)[O-]
REMARK SMILES IDX 8 1 9 2 10 3 11 4 12 5 13 6 14 7 15 8 16 9 7 10 6 11 5 12
REMARK SMILES IDX 4 13 3 14 2 15 1 16
REMARK H PARENT
REMARK Flexibility Score: inf
ROOT
ATOM      1  C   UNL     1     141.903 140.618 145.194  1.00  0.00     0.000 C 
ENDROOT
BRANCH   1   2
ATOM      2  C   UNL     1     142.922 139.875 146.085  1.00  0.00     0.000 C 
BRANCH   2   3
ATOM      3  C   UNL     1     144.374 140.233 145.725  1.00  0.00     0.000 C 
BRANCH   3   4
ATOM      4  C   UNL     1     144.485 140.958 144.375  1.00  0.00     0.000 C 
BRANCH   4   5
ATOM      5  C   UNL     1     145.054 142.381 144.517  1.00  0.00     0.006 C 
BRANCH   5   6
ATOM      6  C   UNL     1     144.675 143.276 143.331  1.00  0.00     0.053 C 
BRANCH   6   7
ATOM      7  C   UNL     1     145.864 143.603 142.480  1.00  0.00     0.041 C 
ATOM      8  O   UNL     1     145.909 143.225 141.279  1.00  0.00    -0.550 OA
ATOM      9  O   UNL     1     146.910 144.353 143.004  1.00  0.00    -0.550 OA
ENDBRANCH   6   7
ENDBRANCH   5   6
ENDBRANCH   4   5
ENDBRANCH   3   4
ENDBRANCH   2   3
ENDBRANCH   1   2
BRANCH   1  10
ATOM     10  C   UNL     1     141.018 141.608 145.969  1.00  0.00     0.000 C 
BRANCH  10  11
ATOM     11  C   UNL     1     141.595 143.034 145.989  1.00  0.00    -0.000 C 
BRANCH  11  12
ATOM     12  C   UNL     1     142.339 143.351 147.295  1.00  0.00    -0.000 C 
BRANCH  12  13
ATOM     13  C   UNL     1     141.387 143.553 148.486  1.00  0.00    -0.000 C 
BRANCH  13  14
ATOM     14  C   UNL     1     141.683 142.574 149.642  1.00  0.00    -0.000 C 
BRANCH  14  15
ATOM     15  C   UNL     1     143.143 142.093 149.681  1.00  0.00    -0.003 C 
ATOM     16  C   UNL     1     143.272 140.572 149.665  1.00  0.00     0.004 C 
ENDBRANCH  14  15
ENDBRANCH  13  14
ENDBRANCH  12  13
ENDBRANCH  11  12
ENDBRANCH  10  11
ENDBRANCH   1  10
TORSDOF 12
ENDMDL
