MODEL 1
REMARK VINA RESULT:    -7.349      0.000      0.000
REMARK INTER + INTRA:          -9.013
REMARK INTER:                  -8.852
REMARK INTRA:                  -0.161
REMARK UNBOUND:                -0.161
REMARK SMILES O=c1c(O)c(-c2ccc(O)c(O)c2)oc2cc(O)cc(O)c12
REMARK SMILES IDX 5 1 3 2 2 3 1 4 22 5 20 6 19 7 17 8 16 9 15 10 14 11 6 12
REMARK SMILES IDX 7 13 8 14 9 15 13 16 11 17 10 18 12 20 4 22 21 24 18 26
REMARK H PARENT 10 19 12 21 4 23 21 25 18 27
REMARK Flexibility Score: inf
ROOT
ATOM      1  C   UNL     1      15.689 -20.700  12.544  1.00  0.00     0.180 A 
ATOM      2  C   UNL     1      16.894 -20.989  11.882  1.00  0.00     0.208 A 
ATOM      3  C   UNL     1      17.997 -21.426  12.633  1.00  0.00     0.238 A 
ATOM      4  O   UNL     1      19.049 -21.755  12.026  1.00  0.00    -0.285 OA
ATOM      5  C   UNL     1      17.898 -21.516  14.043  1.00  0.00     0.111 A 
ATOM      6  C   UNL     1      18.965 -21.905  14.910  1.00  0.00     0.134 A 
ATOM      7  C   UNL     1      18.720 -22.060  16.279  1.00  0.00     0.093 A 
ATOM      8  C   UNL     1      17.469 -21.781  16.824  1.00  0.00     0.123 A 
ATOM      9  C   UNL     1      16.433 -21.348  15.995  1.00  0.00     0.094 A 
ATOM     10  C   UNL     1      16.635 -21.219  14.619  1.00  0.00     0.146 A 
ATOM     11  O   UNL     1      15.617 -20.825  13.864  1.00  0.00    -0.452 OA
ENDROOT
BRANCH   1  12
ATOM     12  C   UNL     1      14.480 -20.247  11.820  1.00  0.00     0.025 A 
ATOM     13  C   UNL     1      13.855 -21.061  10.859  1.00  0.00     0.016 A 
ATOM     14  C   UNL     1      12.700 -20.623  10.205  1.00  0.00     0.051 A 
ATOM     15  C   UNL     1      12.145 -19.373  10.510  1.00  0.00     0.157 A 
ATOM     16  C   UNL     1      13.908 -19.005  12.137  1.00  0.00     0.062 A 
ATOM     17  C   UNL     1      12.752 -18.561  11.484  1.00  0.00     0.158 A 
BRANCH  15  18
ATOM     18  O   UNL     1      10.995 -18.937   9.856  1.00  0.00    -0.504 OA
ATOM     19  H   UNL     1      10.845 -17.958   9.642  1.00  0.00     0.293 HD
ENDBRANCH  15  18
BRANCH  17  20
ATOM     20  O   UNL     1      12.222 -17.316  11.817  1.00  0.00    -0.504 OA
ATOM     21  H   UNL     1      11.428 -16.921  11.327  1.00  0.00     0.293 HD
ENDBRANCH  17  20
ENDBRANCH   1  12
BRANCH   2  22
ATOM     22  O   UNL     1      16.995 -20.821  10.498  1.00  0.00    -0.502 OA
ATOM     23  H   UNL     1      16.185 -20.680   9.907  1.00  0.00     0.293 HD
ENDBRANCH   2  22
BRANCH   6  24
ATOM     24  O   UNL     1      20.279 -22.124  14.484  1.00  0.00    -0.507 OA
ATOM     25  H   UNL     1      21.062 -22.304  15.094  1.00  0.00     0.293 HD
ENDBRANCH   6  24
BRANCH   8  26
ATOM     26  O   UNL     1      17.266 -21.931  18.195  1.00  0.00    -0.508 OA
ATOM     27  H   UNL     1      16.347 -22.123  18.576  1.00  0.00     0.293 HD
ENDBRANCH   8  26
TORSDOF 6
ENDMDL
MODEL 2
REMARK VINA RESULT:    -6.840      0.977      1.595
REMARK INTER + INTRA:          -8.400
REMARK INTER:                  -8.129
REMARK INTRA:                  -0.271
REMARK UNBOUND:                -0.161
REMARK SMILES O=c1c(O)c(-c2ccc(O)c(O)c2)oc2cc(O)cc(O)c12
REMARK SMILES IDX 5 1 3 2 2 3 1 4 22 5 20 6 19 7 17 8 16 9 15 10 14 11 6 12
REMARK SMILES IDX 7 13 8 14 9 15 13 16 11 17 10 18 12 20 4 22 21 24 18 26
REMARK H PARENT 10 19 12 21 4 23 21 25 18 27
REMARK Flexibility Score: inf
ROOT
ATOM      1  C   UNL     1      15.231 -20.143  12.208  1.00  0.00     0.180 A 
ATOM      2  C   UNL     1      16.362 -20.464  11.438  1.00  0.00     0.208 A 
ATOM      3  C   UNL     1      17.466 -21.062  12.067  1.00  0.00     0.238 A 
ATOM      4  O   UNL     1      18.446 -21.415  11.359  1.00  0.00    -0.285 OA
ATOM      5  C   UNL     1      17.448 -21.281  13.466  1.00  0.00     0.111 A 
ATOM      6  C   UNL     1      18.527 -21.839  14.216  1.00  0.00     0.134 A 
ATOM      7  C   UNL     1      18.355 -22.108  15.579  1.00  0.00     0.093 A 
ATOM      8  C   UNL     1      17.169 -21.781  16.234  1.00  0.00     0.123 A 
ATOM      9  C   UNL     1      16.127 -21.185  15.523  1.00  0.00     0.094 A 
ATOM     10  C   UNL     1      16.253 -20.940  14.154  1.00  0.00     0.146 A 
ATOM     11  O   UNL     1      15.230 -20.390  13.512  1.00  0.00    -0.452 OA
ENDROOT
BRANCH   1  12
ATOM     12  C   UNL     1      14.024 -19.524  11.614  1.00  0.00     0.025 A 
ATOM     13  C   UNL     1      13.771 -18.147  11.738  1.00  0.00     0.016 A 
ATOM     14  C   UNL     1      12.637 -17.581  11.149  1.00  0.00     0.051 A 
ATOM     15  C   UNL     1      11.747 -18.378  10.417  1.00  0.00     0.157 A 
ATOM     16  C   UNL     1      13.141 -20.315  10.862  1.00  0.00     0.062 A 
ATOM     17  C   UNL     1      12.003 -19.752  10.271  1.00  0.00     0.158 A 
BRANCH  15  18
ATOM     18  O   UNL     1      10.616 -17.812   9.832  1.00  0.00    -0.504 OA
ATOM     19  H   UNL     1      10.689 -17.054   9.162  1.00  0.00     0.293 HD
ENDBRANCH  15  18
BRANCH  17  20
ATOM     20  O   UNL     1      11.143 -20.572   9.543  1.00  0.00    -0.504 OA
ATOM     21  H   UNL     1      10.188 -20.745   9.835  1.00  0.00     0.293 HD
ENDBRANCH  17  20
ENDBRANCH   1  12
BRANCH   2  22
ATOM     22  O   UNL     1      16.391 -20.170  10.072  1.00  0.00    -0.502 OA
ATOM     23  H   UNL     1      16.082 -19.281   9.700  1.00  0.00     0.293 HD
ENDBRANCH   2  22
BRANCH   6  24
ATOM     24  O   UNL     1      19.788 -22.124  13.681  1.00  0.00    -0.507 OA
ATOM     25  H   UNL     1      20.243 -21.587  12.959  1.00  0.00     0.293 HD
ENDBRANCH   6  24
BRANCH   8  26
ATOM     26  O   UNL     1      17.039 -22.047  17.596  1.00  0.00    -0.508 OA
ATOM     27  H   UNL     1      16.140 -22.266  18.009  1.00  0.00     0.293 HD
ENDBRANCH   8  26
TORSDOF 6
ENDMDL
MODEL 3
REMARK VINA RESULT:    -6.578      1.366      2.287
REMARK INTER + INTRA:          -8.085
REMARK INTER:                  -7.893
REMARK INTRA:                  -0.192
REMARK UNBOUND:                -0.161
REMARK SMILES O=c1c(O)c(-c2ccc(O)c(O)c2)oc2cc(O)cc(O)c12
REMARK SMILES IDX 5 1 3 2 2 3 1 4 22 5 20 6 19 7 17 8 16 9 15 10 14 11 6 12
REMARK SMILES IDX 7 13 8 14 9 15 13 16 11 17 10 18 12 20 4 22 21 24 18 26
REMARK H PARENT 10 19 12 21 4 23 21 25 18 27
REMARK Flexibility Score: inf
ROOT
ATOM      1  C   UNL     1      14.546 -20.003  11.503  1.00  0.00     0.180 A 
ATOM      2  C   UNL     1      15.552 -20.363  10.590  1.00  0.00     0.208 A 
ATOM      3  C   UNL     1      16.711 -20.994  11.069  1.00  0.00     0.238 A 
ATOM      4  O   UNL     1      17.575 -21.381  10.238  1.00  0.00    -0.285 OA
ATOM      5  C   UNL     1      16.876 -21.207  12.459  1.00  0.00     0.111 A 
ATOM      6  C   UNL     1      18.029 -21.796  13.061  1.00  0.00     0.134 A 
ATOM      7  C   UNL     1      18.034 -22.054  14.437  1.00  0.00     0.093 A 
ATOM      8  C   UNL     1      16.959 -21.686  15.244  1.00  0.00     0.123 A 
ATOM      9  C   UNL     1      15.849 -21.060  14.675  1.00  0.00     0.094 A 
ATOM     10  C   UNL     1      15.797 -20.824  13.300  1.00  0.00     0.146 A 
ATOM     11  O   UNL     1      14.714 -20.245  12.797  1.00  0.00    -0.452 OA
ENDROOT
BRANCH   1  12
ATOM     12  C   UNL     1      13.289 -19.348  11.073  1.00  0.00     0.025 A 
ATOM     13  C   UNL     1      13.022 -18.003  11.383  1.00  0.00     0.016 A 
ATOM     14  C   UNL     1      11.840 -17.399  10.946  1.00  0.00     0.051 A 
ATOM     15  C   UNL     1      10.915 -18.124  10.183  1.00  0.00     0.157 A 
ATOM     16  C   UNL     1      12.369 -20.063  10.290  1.00  0.00     0.062 A 
ATOM     17  C   UNL     1      11.184 -19.463   9.851  1.00  0.00     0.158 A 
BRANCH  15  18
ATOM     18  O   UNL     1       9.736 -17.520   9.749  1.00  0.00    -0.504 OA
ATOM     19  H   UNL     1       8.833 -17.958   9.889  1.00  0.00     0.293 HD
ENDBRANCH  15  18
BRANCH  17  20
ATOM     20  O   UNL     1      10.289 -20.210   9.087  1.00  0.00    -0.504 OA
ATOM     21  H   UNL     1      10.028 -19.939   8.147  1.00  0.00     0.293 HD
ENDBRANCH  17  20
ENDBRANCH   1  12
BRANCH   2  22
ATOM     22  O   UNL     1      15.405 -20.076   9.231  1.00  0.00    -0.502 OA
ATOM     23  H   UNL     1      14.499 -19.982   8.789  1.00  0.00     0.293 HD
ENDBRANCH   2  22
BRANCH   6  24
ATOM     24  O   UNL     1      19.196 -22.123  12.363  1.00  0.00    -0.507 OA
ATOM     25  H   UNL     1      19.718 -22.978  12.478  1.00  0.00     0.293 HD
ENDBRANCH   6  24
BRANCH   8  26
ATOM     26  O   UNL     1      17.006 -21.943  16.613  1.00  0.00    -0.508 OA
ATOM     27  H   UNL     1      17.315 -21.239  17.273  1.00  0.00     0.293 HD
ENDBRANCH   8  26
TORSDOF 6
ENDMDL
MODEL 4
REMARK VINA RESULT:    -6.531      2.996      8.336
REMARK INTER + INTRA:          -8.028
REMARK INTER:                  -7.887
REMARK INTRA:                  -0.141
REMARK UNBOUND:                -0.161
REMARK SMILES O=c1c(O)c(-c2ccc(O)c(O)c2)oc2cc(O)cc(O)c12
REMARK SMILES IDX 5 1 3 2 2 3 1 4 22 5 20 6 19 7 17 8 16 9 15 10 14 11 6 12
REMARK SMILES IDX 7 13 8 14 9 15 13 16 11 17 10 18 12 20 4 22 21 24 18 26
REMARK H PARENT 10 19 12 21 4 23 21 25 18 27
REMARK Flexibility Score: inf
ROOT
ATOM      1  C   UNL     1      12.978 -18.882  10.134  1.00  0.00     0.180 A 
ATOM      2  C   UNL     1      13.077 -17.482  10.048  1.00  0.00     0.208 A 
ATOM      3  C   UNL     1      11.925 -16.735   9.759  1.00  0.00     0.238 A 
ATOM      4  O   UNL     1      12.005 -15.478   9.757  1.00  0.00    -0.285 OA
ATOM      5  C   UNL     1      10.699 -17.397   9.504  1.00  0.00     0.111 A 
ATOM      6  C   UNL     1       9.478 -16.744   9.158  1.00  0.00     0.134 A 
ATOM      7  C   UNL     1       8.303 -17.496   9.033  1.00  0.00     0.093 A 
ATOM      8  C   UNL     1       8.316 -18.881   9.179  1.00  0.00     0.123 A 
ATOM      9  C   UNL     1       9.514 -19.537   9.464  1.00  0.00     0.094 A 
ATOM     10  C   UNL     1      10.695 -18.812   9.632  1.00  0.00     0.146 A 
ATOM     11  O   UNL     1      11.809 -19.473   9.923  1.00  0.00    -0.452 OA
ENDROOT
BRANCH   1  12
ATOM     12  C   UNL     1      14.145 -19.737  10.449  1.00  0.00     0.025 A 
ATOM     13  C   UNL     1      15.269 -19.782   9.606  1.00  0.00     0.016 A 
ATOM     14  C   UNL     1      16.368 -20.578   9.936  1.00  0.00     0.051 A 
ATOM     15  C   UNL     1      16.368 -21.330  11.118  1.00  0.00     0.157 A 
ATOM     16  C   UNL     1      14.159 -20.475  11.644  1.00  0.00     0.062 A 
ATOM     17  C   UNL     1      15.258 -21.275  11.978  1.00  0.00     0.158 A 
BRANCH  15  18
ATOM     18  O   UNL     1      17.466 -22.125  11.445  1.00  0.00    -0.504 OA
ATOM     19  H   UNL     1      17.902 -22.077  12.359  1.00  0.00     0.293 HD
ENDBRANCH  15  18
BRANCH  17  20
ATOM     20  O   UNL     1      15.228 -22.004  13.166  1.00  0.00    -0.504 OA
ATOM     21  H   UNL     1      14.462 -21.928  13.824  1.00  0.00     0.293 HD
ENDBRANCH  17  20
ENDBRANCH   1  12
BRANCH   2  22
ATOM     22  O   UNL     1      14.311 -16.852  10.227  1.00  0.00    -0.502 OA
ATOM     23  H   UNL     1      14.402 -15.949  10.677  1.00  0.00     0.293 HD
ENDBRANCH   2  22
BRANCH   6  24
ATOM     24  O   UNL     1       9.369 -15.373   8.902  1.00  0.00    -0.507 OA
ATOM     25  H   UNL     1       8.776 -14.962   8.198  1.00  0.00     0.293 HD
ENDBRANCH   6  24
BRANCH   8  26
ATOM     26  O   UNL     1       7.130 -19.599   9.031  1.00  0.00    -0.508 OA
ATOM     27  H   UNL     1       6.238 -19.132   8.925  1.00  0.00     0.293 HD
ENDBRANCH   8  26
TORSDOF 6
ENDMDL
MODEL 5
REMARK VINA RESULT:    -6.149      3.234      5.626
REMARK INTER + INTRA:          -7.568
REMARK INTER:                  -7.236
REMARK INTRA:                  -0.331
REMARK UNBOUND:                -0.161
REMARK SMILES O=c1c(O)c(-c2ccc(O)c(O)c2)oc2cc(O)cc(O)c12
REMARK SMILES IDX 5 1 3 2 2 3 1 4 22 5 20 6 19 7 17 8 16 9 15 10 14 11 6 12
REMARK SMILES IDX 7 13 8 14 9 15 13 16 11 17 10 18 12 20 4 22 21 24 18 26
REMARK H PARENT 10 19 12 21 4 23 21 25 18 27
REMARK Flexibility Score: inf
ROOT
ATOM      1  C   UNL     1      12.504 -19.024   9.993  1.00  0.00     0.180 A 
ATOM      2  C   UNL     1      12.925 -18.743  11.304  1.00  0.00     0.208 A 
ATOM      3  C   UNL     1      14.177 -19.213  11.732  1.00  0.00     0.238 A 
ATOM      4  O   UNL     1      14.580 -18.895  12.881  1.00  0.00    -0.285 OA
ATOM      5  C   UNL     1      14.968 -20.004  10.864  1.00  0.00     0.111 A 
ATOM      6  C   UNL     1      16.233 -20.570  11.206  1.00  0.00     0.134 A 
ATOM      7  C   UNL     1      16.975 -21.246  10.229  1.00  0.00     0.093 A 
ATOM      8  C   UNL     1      16.472 -21.432   8.944  1.00  0.00     0.123 A 
ATOM      9  C   UNL     1      15.213 -20.930   8.612  1.00  0.00     0.094 A 
ATOM     10  C   UNL     1      14.466 -20.218   9.553  1.00  0.00     0.146 A 
ATOM     11  O   UNL     1      13.282 -19.739   9.190  1.00  0.00    -0.452 OA
ENDROOT
BRANCH   1  12
ATOM     12  C   UNL     1      11.204 -18.551   9.464  1.00  0.00     0.025 A 
ATOM     13  C   UNL     1      11.070 -17.280   8.878  1.00  0.00     0.016 A 
ATOM     14  C   UNL     1       9.839 -16.865   8.364  1.00  0.00     0.051 A 
ATOM     15  C   UNL     1       8.727 -17.717   8.416  1.00  0.00     0.157 A 
ATOM     16  C   UNL     1      10.093 -19.409   9.494  1.00  0.00     0.062 A 
ATOM     17  C   UNL     1       8.857 -18.997   8.981  1.00  0.00     0.158 A 
BRANCH  15  18
ATOM     18  O   UNL     1       7.500 -17.300   7.904  1.00  0.00    -0.504 OA
ATOM     19  H   UNL     1       7.433 -16.808   7.020  1.00  0.00     0.293 HD
ENDBRANCH  15  18
BRANCH  17  20
ATOM     20  O   UNL     1       7.774 -19.871   9.042  1.00  0.00    -0.504 OA
ATOM     21  H   UNL     1       7.661 -20.635   8.385  1.00  0.00     0.293 HD
ENDBRANCH  17  20
ENDBRANCH   1  12
BRANCH   2  22
ATOM     22  O   UNL     1      12.097 -18.027  12.171  1.00  0.00    -0.502 OA
ATOM     23  H   UNL     1      11.351 -18.464  12.698  1.00  0.00     0.293 HD
ENDBRANCH   2  22
BRANCH   6  24
ATOM     24  O   UNL     1      16.793 -20.520  12.487  1.00  0.00    -0.507 OA
ATOM     25  H   UNL     1      17.781 -20.545  12.688  1.00  0.00     0.293 HD
ENDBRANCH   6  24
BRANCH   8  26
ATOM     26  O   UNL     1      17.231 -22.125   8.002  1.00  0.00    -0.508 OA
ATOM     27  H   UNL     1      17.023 -22.072   7.011  1.00  0.00     0.293 HD
ENDBRANCH   8  26
TORSDOF 6
ENDMDL
MODEL 6
REMARK VINA RESULT:    -6.115      1.754      2.707
REMARK INTER + INTRA:          -7.527
REMARK INTER:                  -7.196
REMARK INTRA:                  -0.331
REMARK UNBOUND:                -0.161
REMARK SMILES O=c1c(O)c(-c2ccc(O)c(O)c2)oc2cc(O)cc(O)c12
REMARK SMILES IDX 5 1 3 2 2 3 1 4 22 5 20 6 19 7 17 8 16 9 15 10 14 11 6 12
REMARK SMILES IDX 7 13 8 14 9 15 13 16 11 17 10 18 12 20 4 22 21 24 18 26
REMARK H PARENT 10 19 12 21 4 23 21 25 18 27
REMARK Flexibility Score: inf
ROOT
ATOM      1  C   UNL     1      14.116 -19.681  10.767  1.00  0.00     0.180 A 
ATOM      2  C   UNL     1      15.176 -19.804   9.851  1.00  0.00     0.208 A 
ATOM      3  C   UNL     1      16.396 -20.340  10.291  1.00  0.00     0.238 A 
ATOM      4  O   UNL     1      17.316 -20.516   9.450  1.00  0.00    -0.285 OA
ATOM      5  C   UNL     1      16.562 -20.695  11.652  1.00  0.00     0.111 A 
ATOM      6  C   UNL     1      17.768 -21.206  12.219  1.00  0.00     0.134 A 
ATOM      7  C   UNL     1      17.782 -21.624  13.555  1.00  0.00     0.093 A 
ATOM      8  C   UNL     1      16.655 -21.490  14.363  1.00  0.00     0.123 A 
ATOM      9  C   UNL     1      15.485 -20.941  13.836  1.00  0.00     0.094 A 
ATOM     10  C   UNL     1      15.428 -20.551  12.496  1.00  0.00     0.146 A 
ATOM     11  O   UNL     1      14.290 -20.054  12.029  1.00  0.00    -0.452 OA
ENDROOT
BRANCH   1  12
ATOM     12  C   UNL     1      12.795 -19.139  10.375  1.00  0.00     0.025 A 
ATOM     13  C   UNL     1      11.793 -19.966   9.840  1.00  0.00     0.016 A 
ATOM     14  C   UNL     1      10.546 -19.436   9.500  1.00  0.00     0.051 A 
ATOM     15  C   UNL     1      10.276 -18.076   9.703  1.00  0.00     0.157 A 
ATOM     16  C   UNL     1      12.513 -17.781  10.596  1.00  0.00     0.062 A 
ATOM     17  C   UNL     1      11.265 -17.246  10.257  1.00  0.00     0.158 A 
BRANCH  15  18
ATOM     18  O   UNL     1       9.031 -17.549   9.362  1.00  0.00    -0.504 OA
ATOM     19  H   UNL     1       8.947 -16.700   8.815  1.00  0.00     0.293 HD
ENDBRANCH  15  18
BRANCH  17  20
ATOM     20  O   UNL     1      11.027 -15.890  10.478  1.00  0.00    -0.504 OA
ATOM     21  H   UNL     1      10.308 -15.382   9.977  1.00  0.00     0.293 HD
ENDBRANCH  17  20
ENDBRANCH   1  12
BRANCH   2  22
ATOM     22  O   UNL     1      15.018 -19.376   8.531  1.00  0.00    -0.502 OA
ATOM     23  H   UNL     1      15.561 -19.758   7.766  1.00  0.00     0.293 HD
ENDBRANCH   2  22
BRANCH   6  24
ATOM     24  O   UNL     1      18.980 -21.302  11.525  1.00  0.00    -0.507 OA
ATOM     25  H   UNL     1      19.068 -21.508  10.542  1.00  0.00     0.293 HD
ENDBRANCH   6  24
BRANCH   8  26
ATOM     26  O   UNL     1      16.709 -21.900  15.694  1.00  0.00    -0.508 OA
ATOM     27  H   UNL     1      17.134 -21.322  16.409  1.00  0.00     0.293 HD
ENDBRANCH   8  26
TORSDOF 6
ENDMDL
MODEL 7
REMARK VINA RESULT:    -6.055      2.529      8.142
REMARK INTER + INTRA:          -7.455
REMARK INTER:                  -7.283
REMARK INTRA:                  -0.172
REMARK UNBOUND:                -0.161
REMARK SMILES O=c1c(O)c(-c2ccc(O)c(O)c2)oc2cc(O)cc(O)c12
REMARK SMILES IDX 5 1 3 2 2 3 1 4 22 5 20 6 19 7 17 8 16 9 15 10 14 11 6 12
REMARK SMILES IDX 7 13 8 14 9 15 13 16 11 17 10 18 12 20 4 22 21 24 18 26
REMARK H PARENT 10 19 12 21 4 23 21 25 18 27
REMARK Flexibility Score: inf
ROOT
ATOM      1  C   UNL     1      13.029 -19.287  10.512  1.00  0.00     0.180 A 
ATOM      2  C   UNL     1      12.152 -20.123   9.800  1.00  0.00     0.208 A 
ATOM      3  C   UNL     1      10.949 -19.590   9.309  1.00  0.00     0.238 A 
ATOM      4  O   UNL     1      10.204 -20.324   8.610  1.00  0.00    -0.285 OA
ATOM      5  C   UNL     1      10.612 -18.242   9.584  1.00  0.00     0.111 A 
ATOM      6  C   UNL     1       9.400 -17.607   9.176  1.00  0.00     0.134 A 
ATOM      7  C   UNL     1       9.222 -16.239   9.412  1.00  0.00     0.093 A 
ATOM      8  C   UNL     1      10.181 -15.496  10.097  1.00  0.00     0.123 A 
ATOM      9  C   UNL     1      11.346 -16.117  10.550  1.00  0.00     0.094 A 
ATOM     10  C   UNL     1      11.570 -17.472  10.296  1.00  0.00     0.146 A 
ATOM     11  O   UNL     1      12.701 -18.018  10.725  1.00  0.00    -0.452 OA
ENDROOT
BRANCH   1  12
ATOM     12  C   UNL     1      14.321 -19.772  11.047  1.00  0.00     0.025 A 
ATOM     13  C   UNL     1      15.545 -19.265  10.578  1.00  0.00     0.016 A 
ATOM     14  C   UNL     1      16.751 -19.721  11.116  1.00  0.00     0.051 A 
ATOM     15  C   UNL     1      16.753 -20.679  12.138  1.00  0.00     0.157 A 
ATOM     16  C   UNL     1      14.327 -20.716  12.087  1.00  0.00     0.062 A 
ATOM     17  C   UNL     1      15.533 -21.177  12.628  1.00  0.00     0.158 A 
BRANCH  15  18
ATOM     18  O   UNL     1      17.958 -21.134  12.672  1.00  0.00    -0.504 OA
ATOM     19  H   UNL     1      18.401 -21.981  12.335  1.00  0.00     0.293 HD
ENDBRANCH  15  18
BRANCH  17  20
ATOM     20  O   UNL     1      15.499 -22.125  13.649  1.00  0.00    -0.504 OA
ATOM     21  H   UNL     1      15.171 -23.071  13.494  1.00  0.00     0.293 HD
ENDBRANCH  17  20
ENDBRANCH   1  12
BRANCH   2  22
ATOM     22  O   UNL     1      12.467 -21.470   9.605  1.00  0.00    -0.502 OA
ATOM     23  H   UNL     1      12.100 -22.206  10.196  1.00  0.00     0.293 HD
ENDBRANCH   2  22
BRANCH   6  24
ATOM     24  O   UNL     1       8.335 -18.275   8.560  1.00  0.00    -0.507 OA
ATOM     25  H   UNL     1       8.368 -18.693   7.643  1.00  0.00     0.293 HD
ENDBRANCH   6  24
BRANCH   8  26
ATOM     26  O   UNL     1       9.963 -14.139  10.330  1.00  0.00    -0.508 OA
ATOM     27  H   UNL     1      10.572 -13.430   9.939  1.00  0.00     0.293 HD
ENDBRANCH   8  26
TORSDOF 6
ENDMDL
MODEL 8
REMARK VINA RESULT:    -6.047      2.545      4.279
REMARK INTER + INTRA:          -7.445
REMARK INTER:                  -7.134
REMARK INTRA:                  -0.312
REMARK UNBOUND:                -0.161
REMARK SMILES O=c1c(O)c(-c2ccc(O)c(O)c2)oc2cc(O)cc(O)c12
REMARK SMILES IDX 5 1 3 2 2 3 1 4 22 5 20 6 19 7 17 8 16 9 15 10 14 11 6 12
REMARK SMILES IDX 7 13 8 14 9 15 13 16 11 17 10 18 12 20 4 22 21 24 18 26
REMARK H PARENT 10 19 12 21 4 23 21 25 18 27
REMARK Flexibility Score: inf
ROOT
ATOM      1  C   UNL     1      15.524 -20.289  10.754  1.00  0.00     0.180 A 
ATOM      2  C   UNL     1      15.986 -21.141  11.772  1.00  0.00     0.208 A 
ATOM      3  C   UNL     1      17.359 -21.422  11.854  1.00  0.00     0.238 A 
ATOM      4  O   UNL     1      17.776 -22.125  12.811  1.00  0.00    -0.285 OA
ATOM      5  C   UNL     1      18.247 -20.893  10.885  1.00  0.00     0.111 A 
ATOM      6  C   UNL     1      19.651 -21.148  10.843  1.00  0.00     0.134 A 
ATOM      7  C   UNL     1      20.446 -20.484   9.900  1.00  0.00     0.093 A 
ATOM      8  C   UNL     1      19.882 -19.627   8.958  1.00  0.00     0.123 A 
ATOM      9  C   UNL     1      18.503 -19.412   8.954  1.00  0.00     0.094 A 
ATOM     10  C   UNL     1      17.688 -20.029   9.906  1.00  0.00     0.146 A 
ATOM     11  O   UNL     1      16.384 -19.781   9.879  1.00  0.00    -0.452 OA
ENDROOT
BRANCH   1  12
ATOM     12  C   UNL     1      14.094 -19.934  10.611  1.00  0.00     0.025 A 
ATOM     13  C   UNL     1      13.243 -20.655   9.756  1.00  0.00     0.016 A 
ATOM     14  C   UNL     1      11.891 -20.317   9.656  1.00  0.00     0.051 A 
ATOM     15  C   UNL     1      11.366 -19.264  10.418  1.00  0.00     0.157 A 
ATOM     16  C   UNL     1      13.559 -18.894  11.389  1.00  0.00     0.062 A 
ATOM     17  C   UNL     1      12.206 -18.551  11.291  1.00  0.00     0.158 A 
BRANCH  15  18
ATOM     18  O   UNL     1      10.017 -18.928  10.315  1.00  0.00    -0.504 OA
ATOM     19  H   UNL     1       9.545 -18.898   9.419  1.00  0.00     0.293 HD
ENDBRANCH  15  18
BRANCH  17  20
ATOM     20  O   UNL     1      11.714 -17.504  12.068  1.00  0.00    -0.504 OA
ATOM     21  H   UNL     1      10.943 -17.628  12.714  1.00  0.00     0.293 HD
ENDBRANCH  17  20
ENDBRANCH   1  12
BRANCH   2  22
ATOM     22  O   UNL     1      15.085 -21.714  12.673  1.00  0.00    -0.502 OA
ATOM     23  H   UNL     1      14.219 -22.145  12.376  1.00  0.00     0.293 HD
ENDBRANCH   2  22
BRANCH   6  24
ATOM     24  O   UNL     1      20.308 -22.054  11.682  1.00  0.00    -0.507 OA
ATOM     25  H   UNL     1      20.095 -22.198  12.657  1.00  0.00     0.293 HD
ENDBRANCH   6  24
BRANCH   8  26
ATOM     26  O   UNL     1      20.701 -18.997   8.023  1.00  0.00    -0.508 OA
ATOM     27  H   UNL     1      21.557 -19.428   7.693  1.00  0.00     0.293 HD
ENDBRANCH   8  26
TORSDOF 6
ENDMDL
