MODEL 1
REMARK VINA RESULT:    -4.648      0.000      0.000
REMARK INTER + INTRA:          -7.865
REMARK INTER:                  -7.365
REMARK INTRA:                  -0.499
REMARK UNBOUND:                -0.499
REMARK SMILES CCCCCCCCCCCC(=O)[O-]
REMARK SMILES IDX 7 1 8 2 9 3 10 4 11 5 12 6 13 7 14 8 6 9 5 10 4 11 3 12 2 13
REMARK SMILES IDX 1 14
REMARK H PARENT
REMARK Flexibility Score: inf
ROOT
ATOM      1  C   UNL     1      35.929 106.672 263.020  1.00  0.00     0.000 C 
ENDROOT
BRANCH   1   2
ATOM      2  C   UNL     1      35.558 105.246 263.465  1.00  0.00     0.000 C 
BRANCH   2   3
ATOM      3  C   UNL     1      35.578 105.081 264.993  1.00  0.00     0.000 C 
BRANCH   3   4
ATOM      4  C   UNL     1      35.038 106.319 265.729  1.00  0.00     0.006 C 
BRANCH   4   5
ATOM      5  C   UNL     1      35.020 106.126 267.251  1.00  0.00     0.053 C 
BRANCH   5   6
ATOM      6  C   UNL     1      35.209 107.424 267.978  1.00  0.00     0.041 C 
ATOM      7  O   UNL     1      35.253 108.508 267.340  1.00  0.00    -0.550 OA
ATOM      8  O   UNL     1      35.365 107.430 269.358  1.00  0.00    -0.550 OA
ENDBRANCH   5   6
ENDBRANCH   4   5
ENDBRANCH   3   4
ENDBRANCH   2   3
ENDBRANCH   1   2
BRANCH   1   9
ATOM      9  C   UNL     1      37.441 106.939 263.094  1.00  0.00     0.000 C 
BRANCH   9  10
ATOM     10  C   UNL     1      38.141 106.760 261.738  1.00  0.00    -0.000 C 
BRANCH  10  11
ATOM     11  C   UNL     1      37.114 106.654 260.601  1.00  0.00    -0.000 C 
BRANCH  11  12
ATOM     12  C   UNL     1      37.545 105.670 259.502  1.00  0.00    -0.000 C 
BRANCH  12  13
ATOM     13  C   UNL     1      37.073 106.098 258.105  1.00  0.00    -0.003 C 
ATOM     14  C   UNL     1      36.183 107.336 258.182  1.00  0.00     0.004 C 
ENDBRANCH  12  13
ENDBRANCH  11  12
ENDBRANCH  10  11
ENDBRANCH   9  10
ENDBRANCH   1   9
TORSDOF 10
ENDMDL
MODEL 2
REMARK VINA RESULT:    -4.274      3.741      7.582
REMARK INTER + INTRA:          -7.272
REMARK INTER:                  -6.744
REMARK INTRA:                  -0.528
REMARK UNBOUND:                -0.499
REMARK SMILES CCCCCCCCCCCC(=O)[O-]
REMARK SMILES IDX 7 1 8 2 9 3 10 4 11 5 12 6 13 7 14 8 6 9 5 10 4 11 3 12 2 13
REMARK SMILES IDX 1 14
REMARK H PARENT
REMARK Flexibility Score: inf
ROOT
ATOM      1  C   UNL     1      35.969 106.806 264.138  1.00  0.00     0.000 C 
ENDROOT
BRANCH   1   2
ATOM      2  C   UNL     1      35.487 105.458 263.572  1.00  0.00     0.000 C 
BRANCH   2   3
ATOM      3  C   UNL     1      36.003 105.198 262.147  1.00  0.00     0.000 C 
BRANCH   3   4
ATOM      4  C   UNL     1      36.812 106.379 261.586  1.00  0.00     0.006 C 
BRANCH   4   5
ATOM      5  C   UNL     1      37.750 105.951 260.450  1.00  0.00     0.053 C 
BRANCH   5   6
ATOM      6  C   UNL     1      37.263 106.432 259.116  1.00  0.00     0.041 C 
ATOM      7  O   UNL     1      36.422 107.366 259.047  1.00  0.00    -0.550 OA
ATOM      8  O   UNL     1      37.719 105.828 257.951  1.00  0.00    -0.550 OA
ENDBRANCH   5   6
ENDBRANCH   4   5
ENDBRANCH   3   4
ENDBRANCH   2   3
ENDBRANCH   1   2
BRANCH   1   9
ATOM      9  C   UNL     1      34.886 107.521 264.961  1.00  0.00     0.000 C 
BRANCH   9  10
ATOM     10  C   UNL     1      35.472 108.376 266.095  1.00  0.00    -0.000 C 
BRANCH  10  11
ATOM     11  C   UNL     1      34.948 107.908 267.461  1.00  0.00    -0.000 C 
BRANCH  11  12
ATOM     12  C   UNL     1      34.875 106.378 267.576  1.00  0.00    -0.000 C 
BRANCH  12  13
ATOM     13  C   UNL     1      34.923 105.891 269.032  1.00  0.00    -0.003 C 
ATOM     14  C   UNL     1      35.609 106.916 269.932  1.00  0.00     0.004 C 
ENDBRANCH  12  13
ENDBRANCH  11  12
ENDBRANCH  10  11
ENDBRANCH   9  10
ENDBRANCH   1   9
TORSDOF 10
ENDMDL
MODEL 3
REMARK VINA RESULT:    -4.222      1.201      1.805
REMARK INTER + INTRA:          -7.189
REMARK INTER:                  -6.873
REMARK INTRA:                  -0.316
REMARK UNBOUND:                -0.499
REMARK SMILES CCCCCCCCCCCC(=O)[O-]
REMARK SMILES IDX 7 1 8 2 9 3 10 4 11 5 12 6 13 7 14 8 6 9 5 10 4 11 3 12 2 13
REMARK SMILES IDX 1 14
REMARK H PARENT
REMARK Flexibility Score: inf
ROOT
ATOM      1  C   UNL     1      35.994 105.406 264.516  1.00  0.00     0.000 C 
ENDROOT
BRANCH   1   2
ATOM      2  C   UNL     1      34.875 105.952 265.421  1.00  0.00     0.000 C 
BRANCH   2   3
ATOM      3  C   UNL     1      34.902 107.485 265.534  1.00  0.00     0.000 C 
BRANCH   3   4
ATOM      4  C   UNL     1      35.812 107.978 266.671  1.00  0.00     0.006 C 
BRANCH   4   5
ATOM      5  C   UNL     1      35.035 108.218 267.972  1.00  0.00     0.053 C 
BRANCH   5   6
ATOM      6  C   UNL     1      35.267 107.123 268.969  1.00  0.00     0.041 C 
ATOM      7  O   UNL     1      35.548 107.402 270.164  1.00  0.00    -0.550 OA
ATOM      8  O   UNL     1      35.203 105.794 268.568  1.00  0.00    -0.550 OA
ENDBRANCH   5   6
ENDBRANCH   4   5
ENDBRANCH   3   4
ENDBRANCH   2   3
ENDBRANCH   1   2
BRANCH   1   9
ATOM      9  C   UNL     1      35.784 105.768 263.037  1.00  0.00     0.000 C 
BRANCH   9  10
ATOM     10  C   UNL     1      37.043 106.367 262.390  1.00  0.00    -0.000 C 
BRANCH  10  11
ATOM     11  C   UNL     1      36.797 106.691 260.909  1.00  0.00    -0.000 C 
BRANCH  11  12
ATOM     12  C   UNL     1      37.940 106.212 260.000  1.00  0.00    -0.000 C 
BRANCH  12  13
ATOM     13  C   UNL     1      37.456 105.819 258.597  1.00  0.00    -0.003 C 
ATOM     14  C   UNL     1      36.475 106.850 258.046  1.00  0.00     0.004 C 
ENDBRANCH  12  13
ENDBRANCH  11  12
ENDBRANCH  10  11
ENDBRANCH   9  10
ENDBRANCH   1   9
TORSDOF 10
ENDMDL
MODEL 4
REMARK VINA RESULT:    -4.062      3.732      7.181
REMARK INTER + INTRA:          -6.936
REMARK INTER:                  -6.396
REMARK INTRA:                  -0.540
REMARK UNBOUND:                -0.499
REMARK SMILES CCCCCCCCCCCC(=O)[O-]
REMARK SMILES IDX 7 1 8 2 9 3 10 4 11 5 12 6 13 7 14 8 6 9 5 10 4 11 3 12 2 13
REMARK SMILES IDX 1 14
REMARK H PARENT
REMARK Flexibility Score: inf
ROOT
ATOM      1  C   UNL     1      36.073 104.913 264.791  1.00  0.00     0.000 C 
ENDROOT
BRANCH   1   2
ATOM      2  C   UNL     1      35.815 105.550 263.413  1.00  0.00     0.000 C 
BRANCH   2   3
ATOM      3  C   UNL     1      36.588 106.864 263.216  1.00  0.00     0.000 C 
BRANCH   3   4
ATOM      4  C   UNL     1      37.306 106.929 261.858  1.00  0.00     0.006 C 
BRANCH   4   5
ATOM      5  C   UNL     1      36.631 106.042 260.803  1.00  0.00     0.053 C 
BRANCH   5   6
ATOM      6  C   UNL     1      37.608 105.562 259.772  1.00  0.00     0.041 C 
ATOM      7  O   UNL     1      38.707 105.059 260.125  1.00  0.00    -0.550 OA
ATOM      8  O   UNL     1      37.316 105.699 258.421  1.00  0.00    -0.550 OA
ENDBRANCH   5   6
ENDBRANCH   4   5
ENDBRANCH   3   4
ENDBRANCH   2   3
ENDBRANCH   1   2
BRANCH   1   9
ATOM      9  C   UNL     1      34.875 105.061 265.743  1.00  0.00     0.000 C 
BRANCH   9  10
ATOM     10  C   UNL     1      35.297 105.446 267.169  1.00  0.00    -0.000 C 
BRANCH  10  11
ATOM     11  C   UNL     1      34.899 106.895 267.487  1.00  0.00    -0.000 C 
BRANCH  11  12
ATOM     12  C   UNL     1      35.333 107.883 266.392  1.00  0.00    -0.000 C 
BRANCH  12  13
ATOM     13  C   UNL     1      35.107 109.347 266.793  1.00  0.00    -0.003 C 
ATOM     14  C   UNL     1      34.875 109.476 268.296  1.00  0.00     0.004 C 
ENDBRANCH  12  13
ENDBRANCH  11  12
ENDBRANCH  10  11
ENDBRANCH   9  10
ENDBRANCH   1   9
TORSDOF 10
ENDMDL
MODEL 5
REMARK VINA RESULT:    -3.761      2.684      6.692
REMARK INTER + INTRA:          -6.458
REMARK INTER:                  -5.829
REMARK INTRA:                  -0.629
REMARK UNBOUND:                -0.499
REMARK SMILES CCCCCCCCCCCC(=O)[O-]
REMARK SMILES IDX 7 1 8 2 9 3 10 4 11 5 12 6 13 7 14 8 6 9 5 10 4 11 3 12 2 13
REMARK SMILES IDX 1 14
REMARK H PARENT
REMARK Flexibility Score: inf
ROOT
ATOM      1  C   UNL     1      35.461 104.883 263.719  1.00  0.00     0.000 C 
ENDROOT
BRANCH   1   2
ATOM      2  C   UNL     1      35.152 104.619 262.234  1.00  0.00     0.000 C 
BRANCH   2   3
ATOM      3  C   UNL     1      36.377 104.824 261.330  1.00  0.00     0.000 C 
BRANCH   3   4
ATOM      4  C   UNL     1      36.748 106.307 261.164  1.00  0.00     0.006 C 
BRANCH   4   5
ATOM      5  C   UNL     1      38.266 106.527 261.153  1.00  0.00     0.053 C 
BRANCH   5   6
ATOM      6  C   UNL     1      38.765 107.030 262.474  1.00  0.00     0.041 C 
ATOM      7  O   UNL     1      37.964 107.535 263.304  1.00  0.00    -0.550 OA
ATOM      8  O   UNL     1      40.120 106.968 262.775  1.00  0.00    -0.550 OA
ENDBRANCH   5   6
ENDBRANCH   4   5
ENDBRANCH   3   4
ENDBRANCH   2   3
ENDBRANCH   1   2
BRANCH   1   9
ATOM      9  C   UNL     1      34.941 106.249 264.195  1.00  0.00     0.000 C 
BRANCH   9  10
ATOM     10  C   UNL     1      35.139 106.464 265.703  1.00  0.00    -0.000 C 
BRANCH  10  11
ATOM     11  C   UNL     1      34.880 105.166 266.481  1.00  0.00    -0.000 C 
BRANCH  11  12
ATOM     12  C   UNL     1      34.884 105.375 268.004  1.00  0.00    -0.000 C 
BRANCH  12  13
ATOM     13  C   UNL     1      35.025 106.853 268.398  1.00  0.00    -0.003 C 
ATOM     14  C   UNL     1      35.486 106.994 269.846  1.00  0.00     0.004 C 
ENDBRANCH  12  13
ENDBRANCH  11  12
ENDBRANCH  10  11
ENDBRANCH   9  10
ENDBRANCH   1   9
TORSDOF 10
ENDMDL
MODEL 6
REMARK VINA RESULT:    -3.741      1.703      2.626
REMARK INTER + INTRA:          -6.428
REMARK INTER:                  -5.784
REMARK INTRA:                  -0.644
REMARK UNBOUND:                -0.499
REMARK SMILES CCCCCCCCCCCC(=O)[O-]
REMARK SMILES IDX 7 1 8 2 9 3 10 4 11 5 12 6 13 7 14 8 6 9 5 10 4 11 3 12 2 13
REMARK SMILES IDX 1 14
REMARK H PARENT
REMARK Flexibility Score: inf
ROOT
ATOM      1  C   UNL     1      35.920 105.675 263.907  1.00  0.00     0.000 C 
ENDROOT
BRANCH   1   2
ATOM      2  C   UNL     1      35.087 106.967 263.989  1.00  0.00     0.000 C 
BRANCH   2   3
ATOM      3  C   UNL     1      35.329 107.744 265.292  1.00  0.00     0.000 C 
BRANCH   3   4
ATOM      4  C   UNL     1      34.875 106.965 266.538  1.00  0.00     0.006 C 
BRANCH   4   5
ATOM      5  C   UNL     1      35.153 107.735 267.836  1.00  0.00     0.053 C 
BRANCH   5   6
ATOM      6  C   UNL     1      35.231 106.819 269.020  1.00  0.00     0.041 C 
ATOM      7  O   UNL     1      34.970 105.594 268.893  1.00  0.00    -0.550 OA
ATOM      8  O   UNL     1      35.565 107.326 270.270  1.00  0.00    -0.550 OA
ENDBRANCH   5   6
ENDBRANCH   4   5
ENDBRANCH   3   4
ENDBRANCH   2   3
ENDBRANCH   1   2
BRANCH   1   9
ATOM      9  C   UNL     1      35.750 104.948 262.563  1.00  0.00     0.000 C 
BRANCH   9  10
ATOM     10  C   UNL     1      36.053 105.852 261.359  1.00  0.00    -0.000 C 
BRANCH  10  11
ATOM     11  C   UNL     1      37.207 105.281 260.521  1.00  0.00    -0.000 C 
BRANCH  11  12
ATOM     12  C   UNL     1      38.514 106.070 260.696  1.00  0.00    -0.000 C 
BRANCH  12  13
ATOM     13  C   UNL     1      38.437 107.099 261.833  1.00  0.00    -0.003 C 
ATOM     14  C   UNL     1      39.642 106.981 262.763  1.00  0.00     0.004 C 
ENDBRANCH  12  13
ENDBRANCH  11  12
ENDBRANCH  10  11
ENDBRANCH   9  10
ENDBRANCH   1   9
TORSDOF 10
ENDMDL
MODEL 7
REMARK VINA RESULT:    -3.671      0.985      2.094
REMARK INTER + INTRA:          -6.317
REMARK INTER:                  -5.844
REMARK INTRA:                  -0.473
REMARK UNBOUND:                -0.499
REMARK SMILES CCCCCCCCCCCC(=O)[O-]
REMARK SMILES IDX 7 1 8 2 9 3 10 4 11 5 12 6 13 7 14 8 6 9 5 10 4 11 3 12 2 13
REMARK SMILES IDX 1 14
REMARK H PARENT
REMARK Flexibility Score: inf
ROOT
ATOM      1  C   UNL     1      35.933 105.069 264.469  1.00  0.00     0.000 C 
ENDROOT
BRANCH   1   2
ATOM      2  C   UNL     1      34.921 104.612 265.536  1.00  0.00     0.000 C 
BRANCH   2   3
ATOM      3  C   UNL     1      35.529 104.572 266.947  1.00  0.00     0.000 C 
BRANCH   3   4
ATOM      4  C   UNL     1      34.877 105.588 267.900  1.00  0.00     0.006 C 
BRANCH   4   5
ATOM      5  C   UNL     1      34.875 107.008 267.320  1.00  0.00     0.053 C 
BRANCH   5   6
ATOM      6  C   UNL     1      35.078 108.044 268.384  1.00  0.00     0.041 C 
ATOM      7  O   UNL     1      35.334 107.697 269.566  1.00  0.00    -0.550 OA
ATOM      8  O   UNL     1      34.955 109.393 268.073  1.00  0.00    -0.550 OA
ENDBRANCH   5   6
ENDBRANCH   4   5
ENDBRANCH   3   4
ENDBRANCH   2   3
ENDBRANCH   1   2
BRANCH   1   9
ATOM      9  C   UNL     1      35.256 105.735 263.261  1.00  0.00     0.000 C 
BRANCH   9  10
ATOM     10  C   UNL     1      36.024 106.966 262.756  1.00  0.00    -0.000 C 
BRANCH  10  11
ATOM     11  C   UNL     1      37.532 106.680 262.685  1.00  0.00    -0.000 C 
BRANCH  11  12
ATOM     12  C   UNL     1      38.049 106.581 261.241  1.00  0.00    -0.000 C 
BRANCH  12  13
ATOM     13  C   UNL     1      37.026 105.949 260.288  1.00  0.00    -0.003 C 
ATOM     14  C   UNL     1      37.562 105.902 258.859  1.00  0.00     0.004 C 
ENDBRANCH  12  13
ENDBRANCH  11  12
ENDBRANCH  10  11
ENDBRANCH   9  10
ENDBRANCH   1   9
TORSDOF 10
ENDMDL
MODEL 8
REMARK VINA RESULT:    -3.248      3.952      7.440
REMARK INTER + INTRA:          -5.646
REMARK INTER:                  -5.165
REMARK INTRA:                  -0.481
REMARK UNBOUND:                -0.499
REMARK SMILES CCCCCCCCCCCC(=O)[O-]
REMARK SMILES IDX 7 1 8 2 9 3 10 4 11 5 12 6 13 7 14 8 6 9 5 10 4 11 3 12 2 13
REMARK SMILES IDX 1 14
REMARK H PARENT
REMARK Flexibility Score: inf
ROOT
ATOM      1  C   UNL     1      36.268 106.295 264.033  1.00  0.00     0.000 C 
ENDROOT
BRANCH   1   2
ATOM      2  C   UNL     1      36.036 106.360 262.512  1.00  0.00     0.000 C 
BRANCH   2   3
ATOM      3  C   UNL     1      37.346 106.282 261.712  1.00  0.00     0.000 C 
BRANCH   3   4
ATOM      4  C   UNL     1      37.389 107.287 260.548  1.00  0.00     0.006 C 
BRANCH   4   5
ATOM      5  C   UNL     1      37.230 106.601 259.185  1.00  0.00     0.053 C 
BRANCH   5   6
ATOM      6  C   UNL     1      36.085 107.173 258.405  1.00  0.00     0.041 C 
ATOM      7  O   UNL     1      35.234 106.412 257.875  1.00  0.00    -0.550 OA
ATOM      8  O   UNL     1      35.975 108.549 258.240  1.00  0.00    -0.550 OA
ENDBRANCH   5   6
ENDBRANCH   4   5
ENDBRANCH   3   4
ENDBRANCH   2   3
ENDBRANCH   1   2
BRANCH   1   9
ATOM      9  C   UNL     1      35.926 104.918 264.624  1.00  0.00     0.000 C 
BRANCH   9  10
ATOM     10  C   UNL     1      35.140 105.018 265.940  1.00  0.00    -0.000 C 
BRANCH  10  11
ATOM     11  C   UNL     1      34.884 106.485 266.316  1.00  0.00    -0.000 C 
BRANCH  11  12
ATOM     12  C   UNL     1      35.228 106.789 267.783  1.00  0.00    -0.000 C 
BRANCH  12  13
ATOM     13  C   UNL     1      35.058 108.274 268.135  1.00  0.00    -0.003 C 
ATOM     14  C   UNL     1      35.038 109.138 266.876  1.00  0.00     0.004 C 
ENDBRANCH  12  13
ENDBRANCH  11  12
ENDBRANCH  10  11
ENDBRANCH   9  10
ENDBRANCH   1   9
TORSDOF 10
ENDMDL
MODEL 9
REMARK VINA RESULT:    -2.740      2.967      6.979
REMARK INTER + INTRA:          -4.840
REMARK INTER:                  -4.386
REMARK INTRA:                  -0.455
REMARK UNBOUND:                -0.499
REMARK SMILES CCCCCCCCCCCC(=O)[O-]
REMARK SMILES IDX 7 1 8 2 9 3 10 4 11 5 12 6 13 7 14 8 6 9 5 10 4 11 3 12 2 13
REMARK SMILES IDX 1 14
REMARK H PARENT
REMARK Flexibility Score: inf
ROOT
ATOM      1  C   UNL     1      36.265 107.665 265.370  1.00  0.00     0.000 C 
ENDROOT
BRANCH   1   2
ATOM      2  C   UNL     1      35.513 106.482 264.732  1.00  0.00     0.000 C 
BRANCH   2   3
ATOM      3  C   UNL     1      35.296 106.666 263.222  1.00  0.00     0.000 C 
BRANCH   3   4
ATOM      4  C   UNL     1      36.029 105.603 262.386  1.00  0.00     0.006 C 
BRANCH   4   5
ATOM      5  C   UNL     1      36.740 106.212 261.170  1.00  0.00     0.053 C 
BRANCH   5   6
ATOM      6  C   UNL     1      38.161 106.575 261.481  1.00  0.00     0.041 C 
ATOM      7  O   UNL     1      39.008 106.670 260.555  1.00  0.00    -0.550 OA
ATOM      8  O   UNL     1      38.553 106.780 262.798  1.00  0.00    -0.550 OA
ENDBRANCH   5   6
ENDBRANCH   4   5
ENDBRANCH   3   4
ENDBRANCH   2   3
ENDBRANCH   1   2
BRANCH   1   9
ATOM      9  C   UNL     1      35.314 108.738 265.924  1.00  0.00     0.000 C 
BRANCH   9  10
ATOM     10  C   UNL     1      34.934 108.490 267.392  1.00  0.00    -0.000 C 
BRANCH  10  11
ATOM     11  C   UNL     1      35.898 107.490 268.047  1.00  0.00    -0.000 C 
BRANCH  11  12
ATOM     12  C   UNL     1      35.319 106.855 269.321  1.00  0.00    -0.000 C 
BRANCH  12  13
ATOM     13  C   UNL     1      34.899 105.393 269.116  1.00  0.00    -0.003 C 
ATOM     14  C   UNL     1      35.191 104.932 267.690  1.00  0.00     0.004 C 
ENDBRANCH  12  13
ENDBRANCH  11  12
ENDBRANCH  10  11
ENDBRANCH   9  10
ENDBRANCH   1   9
TORSDOF 10
ENDMDL
