MODEL 1
REMARK VINA RESULT:    -3.838      0.000      0.000
REMARK INTER + INTRA:          -8.503
REMARK INTER:                  -6.531
REMARK INTRA:                  -1.972
REMARK UNBOUND:                -1.972
REMARK SMILES CCCCCCCCCCCCCC(=O)[O-]
REMARK SMILES IDX 8 1 9 2 10 3 11 4 12 5 13 6 14 7 15 8 16 9 7 10 6 11 5 12
REMARK SMILES IDX 4 13 3 14 2 15 1 16
REMARK H PARENT
REMARK Flexibility Score: inf
ROOT
ATOM      1  C   UNL     1       6.393  78.799  39.858  1.00  0.00     0.000 C 
ENDROOT
BRANCH   1   2
ATOM      2  C   UNL     1       6.354  77.266  39.745  1.00  0.00     0.000 C 
BRANCH   2   3
ATOM      3  C   UNL     1       4.989  76.746  39.258  1.00  0.00     0.000 C 
BRANCH   3   4
ATOM      4  C   UNL     1       5.117  75.780  38.069  1.00  0.00     0.000 C 
BRANCH   4   5
ATOM      5  C   UNL     1       6.435  74.985  38.091  1.00  0.00     0.006 C 
BRANCH   5   6
ATOM      6  C   UNL     1       6.204  73.490  38.349  1.00  0.00     0.053 C 
BRANCH   6   7
ATOM      7  C   UNL     1       6.768  73.062  39.669  1.00  0.00     0.041 C 
ATOM      8  O   UNL     1       6.223  73.435  40.741  1.00  0.00    -0.550 OA
ATOM      9  O   UNL     1       7.874  72.223  39.714  1.00  0.00    -0.550 OA
ENDBRANCH   6   7
ENDBRANCH   5   6
ENDBRANCH   4   5
ENDBRANCH   3   4
ENDBRANCH   2   3
ENDBRANCH   1   2
BRANCH   1  10
ATOM     10  C   UNL     1       5.311  79.485  39.006  1.00  0.00     0.000 C 
BRANCH  10  11
ATOM     11  C   UNL     1       5.893  80.177  37.764  1.00  0.00    -0.000 C 
BRANCH  11  12
ATOM     12  C   UNL     1       6.164  79.194  36.613  1.00  0.00    -0.000 C 
BRANCH  12  13
ATOM     13  C   UNL     1       7.652  79.128  36.223  1.00  0.00    -0.000 C 
BRANCH  13  14
ATOM     14  C   UNL     1       8.389  77.853  36.681  1.00  0.00    -0.000 C 
BRANCH  14  15
ATOM     15  C   UNL     1       9.618  78.097  37.573  1.00  0.00    -0.003 C 
ATOM     16  C   UNL     1       9.690  79.524  38.113  1.00  0.00     0.004 C 
ENDBRANCH  14  15
ENDBRANCH  13  14
ENDBRANCH  12  13
ENDBRANCH  11  12
ENDBRANCH  10  11
ENDBRANCH   1  10
TORSDOF 12
ENDMDL
MODEL 2
REMARK VINA RESULT:    -3.750      3.907      6.172
REMARK INTER + INTRA:          -8.354
REMARK INTER:                  -6.627
REMARK INTRA:                  -1.727
REMARK UNBOUND:                -1.972
REMARK SMILES CCCCCCCCCCCCCC(=O)[O-]
REMARK SMILES IDX 8 1 9 2 10 3 11 4 12 5 13 6 14 7 15 8 16 9 7 10 6 11 5 12
REMARK SMILES IDX 4 13 3 14 2 15 1 16
REMARK H PARENT
REMARK Flexibility Score: inf
ROOT
ATOM      1  C   UNL     1       9.741  78.410  37.281  1.00  0.00     0.000 C 
ENDROOT
BRANCH   1   2
ATOM      2  C   UNL     1       9.644  79.663  38.168  1.00  0.00     0.000 C 
BRANCH   2   3
ATOM      3  C   UNL     1       9.337  79.322  39.637  1.00  0.00     0.000 C 
BRANCH   3   4
ATOM      4  C   UNL     1       8.749  80.515  40.408  1.00  0.00     0.000 C 
BRANCH   4   5
ATOM      5  C   UNL     1       9.834  81.408  41.036  1.00  0.00     0.006 C 
BRANCH   5   6
ATOM      6  C   UNL     1      10.261  80.910  42.423  1.00  0.00     0.053 C 
BRANCH   6   7
ATOM      7  C   UNL     1      11.680  80.431  42.428  1.00  0.00     0.041 C 
ATOM      8  O   UNL     1      11.939  79.217  42.215  1.00  0.00    -0.550 OA
ATOM      9  O   UNL     1      12.717  81.331  42.633  1.00  0.00    -0.550 OA
ENDBRANCH   6   7
ENDBRANCH   5   6
ENDBRANCH   4   5
ENDBRANCH   3   4
ENDBRANCH   2   3
ENDBRANCH   1   2
BRANCH   1  10
ATOM     10  C   UNL     1       8.395  78.036  36.634  1.00  0.00     0.000 C 
BRANCH  10  11
ATOM     11  C   UNL     1       7.558  79.269  36.265  1.00  0.00    -0.000 C 
BRANCH  11  12
ATOM     12  C   UNL     1       6.089  79.137  36.701  1.00  0.00    -0.000 C 
BRANCH  12  13
ATOM     13  C   UNL     1       5.751  80.005  37.927  1.00  0.00    -0.000 C 
BRANCH  13  14
ATOM     14  C   UNL     1       5.574  79.226  39.246  1.00  0.00    -0.000 C 
BRANCH  14  15
ATOM     15  C   UNL     1       5.361  77.712  39.084  1.00  0.00    -0.003 C 
ATOM     16  C   UNL     1       6.511  76.883  39.656  1.00  0.00     0.004 C 
ENDBRANCH  14  15
ENDBRANCH  13  14
ENDBRANCH  12  13
ENDBRANCH  11  12
ENDBRANCH  10  11
ENDBRANCH   1  10
TORSDOF 12
ENDMDL
MODEL 3
REMARK VINA RESULT:    -3.715      3.138      5.467
REMARK INTER + INTRA:          -8.294
REMARK INTER:                  -6.250
REMARK INTRA:                  -2.044
REMARK UNBOUND:                -1.972
REMARK SMILES CCCCCCCCCCCCCC(=O)[O-]
REMARK SMILES IDX 8 1 9 2 10 3 11 4 12 5 13 6 14 7 15 8 16 9 7 10 6 11 5 12
REMARK SMILES IDX 4 13 3 14 2 15 1 16
REMARK H PARENT
REMARK Flexibility Score: inf
ROOT
ATOM      1  C   UNL     1       6.198  79.096  36.658  1.00  0.00     0.000 C 
ENDROOT
BRANCH   1   2
ATOM      2  C   UNL     1       7.672  79.048  36.224  1.00  0.00     0.000 C 
BRANCH   2   3
ATOM      3  C   UNL     1       8.383  77.766  36.692  1.00  0.00     0.000 C 
BRANCH   3   4
ATOM      4  C   UNL     1       9.624  78.060  37.551  1.00  0.00     0.000 C 
BRANCH   4   5
ATOM      5  C   UNL     1       9.752  79.549  37.917  1.00  0.00     0.006 C 
BRANCH   5   6
ATOM      6  C   UNL     1       9.479  79.805  39.405  1.00  0.00     0.053 C 
BRANCH   6   7
ATOM      7  C   UNL     1      10.744  80.067  40.163  1.00  0.00     0.041 C 
ATOM      8  O   UNL     1      11.591  80.886  39.719  1.00  0.00    -0.550 OA
ATOM      9  O   UNL     1      10.970  79.432  41.378  1.00  0.00    -0.550 OA
ENDBRANCH   6   7
ENDBRANCH   5   6
ENDBRANCH   4   5
ENDBRANCH   3   4
ENDBRANCH   2   3
ENDBRANCH   1   2
BRANCH   1  10
ATOM     10  C   UNL     1       5.912  80.223  37.667  1.00  0.00     0.000 C 
BRANCH  10  11
ATOM     11  C   UNL     1       5.786  79.703  39.107  1.00  0.00    -0.000 C 
BRANCH  11  12
ATOM     12  C   UNL     1       5.340  78.233  39.167  1.00  0.00    -0.000 C 
BRANCH  12  13
ATOM     13  C   UNL     1       6.406  77.311  39.789  1.00  0.00    -0.000 C 
BRANCH  13  14
ATOM     14  C   UNL     1       6.397  75.861  39.264  1.00  0.00    -0.000 C 
BRANCH  14  15
ATOM     15  C   UNL     1       5.321  75.558  38.208  1.00  0.00    -0.003 C 
ATOM     16  C   UNL     1       5.891  74.929  36.938  1.00  0.00     0.004 C 
ENDBRANCH  14  15
ENDBRANCH  13  14
ENDBRANCH  12  13
ENDBRANCH  11  12
ENDBRANCH  10  11
ENDBRANCH   1  10
TORSDOF 12
ENDMDL
MODEL 4
REMARK VINA RESULT:    -3.702      4.321      6.738
REMARK INTER + INTRA:          -8.272
REMARK INTER:                  -7.055
REMARK INTRA:                  -1.217
REMARK UNBOUND:                -1.972
REMARK SMILES CCCCCCCCCCCCCC(=O)[O-]
REMARK SMILES IDX 8 1 9 2 10 3 11 4 12 5 13 6 14 7 15 8 16 9 7 10 6 11 5 12
REMARK SMILES IDX 4 13 3 14 2 15 1 16
REMARK H PARENT
REMARK Flexibility Score: inf
ROOT
ATOM      1  C   UNL     1       9.554  79.774  38.252  1.00  0.00     0.000 C 
ENDROOT
BRANCH   1   2
ATOM      2  C   UNL     1      10.850  80.557  38.515  1.00  0.00     0.000 C 
BRANCH   2   3
ATOM      3  C   UNL     1      11.046  80.889  40.006  1.00  0.00     0.000 C 
BRANCH   3   4
ATOM      4  C   UNL     1      10.654  79.721  40.925  1.00  0.00     0.000 C 
BRANCH   4   5
ATOM      5  C   UNL     1      11.673  79.489  42.056  1.00  0.00     0.006 C 
BRANCH   5   6
ATOM      6  C   UNL     1      12.070  80.796  42.753  1.00  0.00     0.053 C 
BRANCH   6   7
ATOM      7  C   UNL     1      11.037  81.230  43.747  1.00  0.00     0.041 C 
ATOM      8  O   UNL     1      10.931  80.635  44.852  1.00  0.00    -0.550 OA
ATOM      9  O   UNL     1      10.214  82.314  43.468  1.00  0.00    -0.550 OA
ENDBRANCH   6   7
ENDBRANCH   5   6
ENDBRANCH   4   5
ENDBRANCH   3   4
ENDBRANCH   2   3
ENDBRANCH   1   2
BRANCH   1  10
ATOM     10  C   UNL     1       9.781  78.529  37.375  1.00  0.00     0.000 C 
BRANCH  10  11
ATOM     11  C   UNL     1       8.592  78.240  36.446  1.00  0.00    -0.000 C 
BRANCH  11  12
ATOM     12  C   UNL     1       7.517  79.339  36.506  1.00  0.00    -0.000 C 
BRANCH  12  13
ATOM     13  C   UNL     1       6.216  78.864  37.179  1.00  0.00    -0.000 C 
BRANCH  13  14
ATOM     14  C   UNL     1       5.787  79.683  38.413  1.00  0.00    -0.000 C 
BRANCH  14  15
ATOM     15  C   UNL     1       6.188  79.076  39.768  1.00  0.00    -0.003 C 
ATOM     16  C   UNL     1       6.668  77.629  39.656  1.00  0.00     0.004 C 
ENDBRANCH  14  15
ENDBRANCH  13  14
ENDBRANCH  12  13
ENDBRANCH  11  12
ENDBRANCH  10  11
ENDBRANCH   1  10
TORSDOF 12
ENDMDL
MODEL 5
REMARK VINA RESULT:    -3.689      0.856      1.635
REMARK INTER + INTRA:          -8.249
REMARK INTER:                  -6.539
REMARK INTRA:                  -1.710
REMARK UNBOUND:                -1.972
REMARK SMILES CCCCCCCCCCCCCC(=O)[O-]
REMARK SMILES IDX 8 1 9 2 10 3 11 4 12 5 13 6 14 7 15 8 16 9 7 10 6 11 5 12
REMARK SMILES IDX 4 13 3 14 2 15 1 16
REMARK H PARENT
REMARK Flexibility Score: inf
ROOT
ATOM      1  C   UNL     1       5.985  77.033  39.592  1.00  0.00     0.000 C 
ENDROOT
BRANCH   1   2
ATOM      2  C   UNL     1       4.840  76.316  38.857  1.00  0.00     0.000 C 
BRANCH   2   3
ATOM      3  C   UNL     1       5.324  75.560  37.607  1.00  0.00     0.000 C 
BRANCH   3   4
ATOM      4  C   UNL     1       6.856  75.538  37.488  1.00  0.00     0.000 C 
BRANCH   4   5
ATOM      5  C   UNL     1       7.409  74.129  37.210  1.00  0.00     0.006 C 
BRANCH   5   6
ATOM      6  C   UNL     1       6.609  73.040  37.936  1.00  0.00     0.053 C 
BRANCH   6   7
ATOM      7  C   UNL     1       7.197  72.719  39.275  1.00  0.00     0.041 C 
ATOM      8  O   UNL     1       6.837  73.363  40.296  1.00  0.00    -0.550 OA
ATOM      9  O   UNL     1       8.118  71.687  39.401  1.00  0.00    -0.550 OA
ENDBRANCH   6   7
ENDBRANCH   5   6
ENDBRANCH   4   5
ENDBRANCH   3   4
ENDBRANCH   2   3
ENDBRANCH   1   2
BRANCH   1  10
ATOM     10  C   UNL     1       5.529  78.336  40.273  1.00  0.00     0.000 C 
BRANCH  10  11
ATOM     11  C   UNL     1       5.241  79.457  39.264  1.00  0.00    -0.000 C 
BRANCH  11  12
ATOM     12  C   UNL     1       6.471  79.812  38.411  1.00  0.00    -0.000 C 
BRANCH  12  13
ATOM     13  C   UNL     1       6.228  79.615  36.903  1.00  0.00    -0.000 C 
BRANCH  13  14
ATOM     14  C   UNL     1       7.434  79.060  36.118  1.00  0.00    -0.000 C 
BRANCH  14  15
ATOM     15  C   UNL     1       8.650  78.679  36.978  1.00  0.00    -0.003 C 
ATOM     16  C   UNL     1       9.691  77.863  36.211  1.00  0.00     0.004 C 
ENDBRANCH  14  15
ENDBRANCH  13  14
ENDBRANCH  12  13
ENDBRANCH  11  12
ENDBRANCH  10  11
ENDBRANCH   1  10
TORSDOF 12
ENDMDL
MODEL 6
REMARK VINA RESULT:    -3.645      3.790      6.244
REMARK INTER + INTRA:          -8.175
REMARK INTER:                  -6.796
REMARK INTRA:                  -1.380
REMARK UNBOUND:                -1.972
REMARK SMILES CCCCCCCCCCCCCC(=O)[O-]
REMARK SMILES IDX 8 1 9 2 10 3 11 4 12 5 13 6 14 7 15 8 16 9 7 10 6 11 5 12
REMARK SMILES IDX 4 13 3 14 2 15 1 16
REMARK H PARENT
REMARK Flexibility Score: inf
ROOT
ATOM      1  C   UNL     1       7.263  80.187  37.929  1.00  0.00     0.000 C 
ENDROOT
BRANCH   1   2
ATOM      2  C   UNL     1       8.247  79.179  37.314  1.00  0.00     0.000 C 
BRANCH   2   3
ATOM      3  C   UNL     1       9.678  79.348  37.854  1.00  0.00     0.000 C 
BRANCH   3   4
ATOM      4  C   UNL     1       9.775  80.433  38.938  1.00  0.00     0.000 C 
BRANCH   4   5
ATOM      5  C   UNL     1      11.229  80.751  39.331  1.00  0.00     0.006 C 
BRANCH   5   6
ATOM      6  C   UNL     1      11.311  81.576  40.622  1.00  0.00     0.053 C 
BRANCH   6   7
ATOM      7  C   UNL     1      11.985  80.817  41.723  1.00  0.00     0.041 C 
ATOM      8  O   UNL     1      11.888  79.562  41.779  1.00  0.00    -0.550 OA
ATOM      9  O   UNL     1      12.748  81.491  42.667  1.00  0.00    -0.550 OA
ENDBRANCH   6   7
ENDBRANCH   5   6
ENDBRANCH   4   5
ENDBRANCH   3   4
ENDBRANCH   2   3
ENDBRANCH   1   2
BRANCH   1  10
ATOM     10  C   UNL     1       5.800  79.716  37.846  1.00  0.00     0.000 C 
BRANCH  10  11
ATOM     11  C   UNL     1       5.084  79.781  39.203  1.00  0.00    -0.000 C 
BRANCH  11  12
ATOM     12  C   UNL     1       5.575  78.701  40.182  1.00  0.00    -0.000 C 
BRANCH  12  13
ATOM     13  C   UNL     1       5.368  77.272  39.646  1.00  0.00    -0.000 C 
BRANCH  13  14
ATOM     14  C   UNL     1       6.665  76.468  39.421  1.00  0.00    -0.000 C 
BRANCH  14  15
ATOM     15  C   UNL     1       6.775  75.782  38.049  1.00  0.00    -0.003 C 
ATOM     16  C   UNL     1       5.563  76.039  37.154  1.00  0.00     0.004 C 
ENDBRANCH  14  15
ENDBRANCH  13  14
ENDBRANCH  12  13
ENDBRANCH  11  12
ENDBRANCH  10  11
ENDBRANCH   1  10
TORSDOF 12
ENDMDL
MODEL 7
REMARK VINA RESULT:    -3.606      1.536      2.336
REMARK INTER + INTRA:          -8.109
REMARK INTER:                  -6.908
REMARK INTRA:                  -1.201
REMARK UNBOUND:                -1.972
REMARK SMILES CCCCCCCCCCCCCC(=O)[O-]
REMARK SMILES IDX 8 1 9 2 10 3 11 4 12 5 13 6 14 7 15 8 16 9 7 10 6 11 5 12
REMARK SMILES IDX 4 13 3 14 2 15 1 16
REMARK H PARENT
REMARK Flexibility Score: inf
ROOT
ATOM      1  C   UNL     1       5.388  77.026  39.622  1.00  0.00     0.000 C 
ENDROOT
BRANCH   1   2
ATOM      2  C   UNL     1       4.300  76.082  39.085  1.00  0.00     0.000 C 
BRANCH   2   3
ATOM      3  C   UNL     1       4.658  74.598  39.284  1.00  0.00     0.000 C 
BRANCH   3   4
ATOM      4  C   UNL     1       6.112  74.398  39.739  1.00  0.00     0.000 C 
BRANCH   4   5
ATOM      5  C   UNL     1       6.338  73.038  40.423  1.00  0.00     0.006 C 
BRANCH   5   6
ATOM      6  C   UNL     1       5.690  71.885  39.645  1.00  0.00     0.053 C 
BRANCH   6   7
ATOM      7  C   UNL     1       6.675  71.196  38.752  1.00  0.00     0.041 C 
ATOM      8  O   UNL     1       7.882  71.096  39.098  1.00  0.00    -0.550 OA
ATOM      9  O   UNL     1       6.254  70.635  37.553  1.00  0.00    -0.550 OA
ENDBRANCH   6   7
ENDBRANCH   5   6
ENDBRANCH   4   5
ENDBRANCH   3   4
ENDBRANCH   2   3
ENDBRANCH   1   2
BRANCH   1  10
ATOM     10  C   UNL     1       5.744  78.147  38.629  1.00  0.00     0.000 C 
BRANCH  10  11
ATOM     11  C   UNL     1       6.193  77.603  37.265  1.00  0.00    -0.000 C 
BRANCH  11  12
ATOM     12  C   UNL     1       7.636  77.071  37.288  1.00  0.00    -0.000 C 
BRANCH  12  13
ATOM     13  C   UNL     1       8.614  77.967  36.507  1.00  0.00    -0.000 C 
BRANCH  13  14
ATOM     14  C   UNL     1       9.755  78.573  37.350  1.00  0.00    -0.000 C 
BRANCH  14  15
ATOM     15  C   UNL     1       9.305  79.563  38.438  1.00  0.00    -0.003 C 
ATOM     16  C   UNL     1       9.378  78.975  39.847  1.00  0.00     0.004 C 
ENDBRANCH  14  15
ENDBRANCH  13  14
ENDBRANCH  12  13
ENDBRANCH  11  12
ENDBRANCH  10  11
ENDBRANCH   1  10
TORSDOF 12
ENDMDL
MODEL 8
REMARK VINA RESULT:    -3.602      2.013      3.137
REMARK INTER + INTRA:          -8.102
REMARK INTER:                  -6.407
REMARK INTRA:                  -1.694
REMARK UNBOUND:                -1.972
REMARK SMILES CCCCCCCCCCCCCC(=O)[O-]
REMARK SMILES IDX 8 1 9 2 10 3 11 4 12 5 13 6 14 7 15 8 16 9 7 10 6 11 5 12
REMARK SMILES IDX 4 13 3 14 2 15 1 16
REMARK H PARENT
REMARK Flexibility Score: inf
ROOT
ATOM      1  C   UNL     1       4.370  75.108  39.245  1.00  0.00     0.000 C 
ENDROOT
BRANCH   1   2
ATOM      2  C   UNL     1       4.447  74.110  38.078  1.00  0.00     0.000 C 
BRANCH   2   3
ATOM      3  C   UNL     1       5.101  74.718  36.824  1.00  0.00     0.000 C 
BRANCH   3   4
ATOM      4  C   UNL     1       6.346  73.938  36.372  1.00  0.00     0.000 C 
BRANCH   4   5
ATOM      5  C   UNL     1       7.521  74.073  37.357  1.00  0.00     0.006 C 
BRANCH   5   6
ATOM      6  C   UNL     1       8.857  73.665  36.723  1.00  0.00     0.053 C 
BRANCH   6   7
ATOM      7  C   UNL     1       9.321  72.330  37.218  1.00  0.00     0.041 C 
ATOM      8  O   UNL     1       8.666  71.719  38.102  1.00  0.00    -0.550 OA
ATOM      9  O   UNL     1      10.460  71.746  36.678  1.00  0.00    -0.550 OA
ENDBRANCH   6   7
ENDBRANCH   5   6
ENDBRANCH   4   5
ENDBRANCH   3   4
ENDBRANCH   2   3
ENDBRANCH   1   2
BRANCH   1  10
ATOM     10  C   UNL     1       4.909  76.501  38.872  1.00  0.00     0.000 C 
BRANCH  10  11
ATOM     11  C   UNL     1       6.081  76.935  39.765  1.00  0.00    -0.000 C 
BRANCH  11  12
ATOM     12  C   UNL     1       7.302  77.397  38.953  1.00  0.00    -0.000 C 
BRANCH  12  13
ATOM     13  C   UNL     1       6.934  77.850  37.528  1.00  0.00    -0.000 C 
BRANCH  13  14
ATOM     14  C   UNL     1       8.134  78.224  36.635  1.00  0.00    -0.000 C 
BRANCH  14  15
ATOM     15  C   UNL     1       9.514  77.890  37.225  1.00  0.00    -0.003 C 
ATOM     16  C   UNL     1      10.378  77.051  36.285  1.00  0.00     0.004 C 
ENDBRANCH  14  15
ENDBRANCH  13  14
ENDBRANCH  12  13
ENDBRANCH  11  12
ENDBRANCH  10  11
ENDBRANCH   1  10
TORSDOF 12
ENDMDL
MODEL 9
REMARK VINA RESULT:    -3.600      1.653      2.432
REMARK INTER + INTRA:          -8.098
REMARK INTER:                  -6.697
REMARK INTRA:                  -1.400
REMARK UNBOUND:                -1.972
REMARK SMILES CCCCCCCCCCCCCC(=O)[O-]
REMARK SMILES IDX 8 1 9 2 10 3 11 4 12 5 13 6 14 7 15 8 16 9 7 10 6 11 5 12
REMARK SMILES IDX 4 13 3 14 2 15 1 16
REMARK H PARENT
REMARK Flexibility Score: inf
ROOT
ATOM      1  C   UNL     1       5.360  80.133  38.255  1.00  0.00     0.000 C 
ENDROOT
BRANCH   1   2
ATOM      2  C   UNL     1       5.968  79.516  39.525  1.00  0.00     0.000 C 
BRANCH   2   3
ATOM      3  C   UNL     1       5.257  78.218  39.948  1.00  0.00     0.000 C 
BRANCH   3   4
ATOM      4  C   UNL     1       5.199  77.182  38.814  1.00  0.00     0.000 C 
BRANCH   4   5
ATOM      5  C   UNL     1       5.166  75.734  39.335  1.00  0.00     0.006 C 
BRANCH   5   6
ATOM      6  C   UNL     1       3.933  74.969  38.838  1.00  0.00     0.053 C 
BRANCH   6   7
ATOM      7  C   UNL     1       4.313  73.700  38.139  1.00  0.00     0.041 C 
ATOM      8  O   UNL     1       4.619  72.676  38.805  1.00  0.00    -0.550 OA
ATOM      9  O   UNL     1       4.295  73.639  36.751  1.00  0.00    -0.550 OA
ENDBRANCH   6   7
ENDBRANCH   5   6
ENDBRANCH   4   5
ENDBRANCH   3   4
ENDBRANCH   2   3
ENDBRANCH   1   2
BRANCH   1  10
ATOM     10  C   UNL     1       6.419  80.453  37.185  1.00  0.00     0.000 C 
BRANCH  10  11
ATOM     11  C   UNL     1       6.658  79.278  36.225  1.00  0.00    -0.000 C 
BRANCH  11  12
ATOM     12  C   UNL     1       8.129  78.832  36.194  1.00  0.00    -0.000 C 
BRANCH  12  13
ATOM     13  C   UNL     1       8.486  77.875  37.346  1.00  0.00    -0.000 C 
BRANCH  13  14
ATOM     14  C   UNL     1       9.350  78.496  38.462  1.00  0.00    -0.000 C 
BRANCH  14  15
ATOM     15  C   UNL     1      10.084  79.790  38.073  1.00  0.00    -0.003 C 
ATOM     16  C   UNL     1      10.776  80.464  39.257  1.00  0.00     0.004 C 
ENDBRANCH  14  15
ENDBRANCH  13  14
ENDBRANCH  12  13
ENDBRANCH  11  12
ENDBRANCH  10  11
ENDBRANCH   1  10
TORSDOF 12
ENDMDL
