MODEL 1
REMARK VINA RESULT:     3.166      0.000      0.000
REMARK INTER + INTRA:           7.059
REMARK INTER:                   8.348
REMARK INTRA:                  -1.290
REMARK UNBOUND:                -1.290
REMARK SMILES CCCCCCCCCCCCCCCCCCCCCCCCCCCCCC(=O)[O-]
REMARK SMILES IDX 16 1 17 2 18 3 19 4 20 5 21 6 22 7 23 8 24 9 25 10 26 11
REMARK SMILES IDX 27 12 28 13 29 14 30 15 31 16 32 17 15 18 14 19 13 20 12 21
REMARK SMILES IDX 11 22 10 23 9 24 8 25 7 26 6 27 5 28 4 29 3 30 2 31 1 32
REMARK H PARENT
REMARK Flexibility Score: inf
ROOT
ATOM      1  C   UNL     1     -10.799   4.540   0.554  1.00  0.00     0.000 C 
ENDROOT
BRANCH   1   2
ATOM      2  C   UNL     1      -9.386   4.303   0.000  1.00  0.00     0.000 C 
BRANCH   2   3
ATOM      3  C   UNL     1      -8.509   3.448   0.931  1.00  0.00     0.000 C 
BRANCH   3   4
ATOM      4  C   UNL     1      -7.909   2.201   0.245  1.00  0.00     0.000 C 
BRANCH   4   5
ATOM      5  C   UNL     1      -6.372   2.187   0.326  1.00  0.00     0.000 C 
BRANCH   5   6
ATOM      6  C   UNL     1      -5.803   3.344   1.168  1.00  0.00     0.000 C 
BRANCH   6   7
ATOM      7  C   UNL     1      -4.311   3.656   0.912  1.00  0.00     0.000 C 
BRANCH   7   8
ATOM      8  C   UNL     1      -3.337   2.762   1.705  1.00  0.00     0.000 C 
BRANCH   8   9
ATOM      9  C   UNL     1      -3.645   2.624   3.208  1.00  0.00     0.000 C 
BRANCH   9  10
ATOM     10  C   UNL     1      -3.111   1.338   3.870  1.00  0.00     0.000 C 
BRANCH  10  11
ATOM     11  C   UNL     1      -1.714   1.466   4.508  1.00  0.00     0.000 C 
BRANCH  11  12
ATOM     12  C   UNL     1      -1.098   0.140   5.002  1.00  0.00     0.000 C 
BRANCH  12  13
ATOM     13  C   UNL     1       0.359  -0.100   4.568  1.00  0.00     0.006 C 
BRANCH  13  14
ATOM     14  C   UNL     1       1.163   1.201   4.436  1.00  0.00     0.053 C 
BRANCH  14  15
ATOM     15  C   UNL     1       2.356   1.191   5.341  1.00  0.00     0.041 C 
ATOM     16  O   UNL     1       2.734   0.118   5.882  1.00  0.00    -0.550 OA
ATOM     17  O   UNL     1       3.039   2.372   5.607  1.00  0.00    -0.550 OA
ENDBRANCH  14  15
ENDBRANCH  13  14
ENDBRANCH  12  13
ENDBRANCH  11  12
ENDBRANCH  10  11
ENDBRANCH   9  10
ENDBRANCH   8   9
ENDBRANCH   7   8
ENDBRANCH   6   7
ENDBRANCH   5   6
ENDBRANCH   4   5
ENDBRANCH   3   4
ENDBRANCH   2   3
ENDBRANCH   1   2
BRANCH   1  18
ATOM     18  C   UNL     1     -11.539   3.211   0.748  1.00  0.00     0.000 C 
BRANCH  18  19
ATOM     19  C   UNL     1     -13.021   3.341   0.362  1.00  0.00     0.000 C 
BRANCH  19  20
ATOM     20  C   UNL     1     -13.757   1.991   0.359  1.00  0.00     0.000 C 
BRANCH  20  21
ATOM     21  C   UNL     1     -15.217   2.109  -0.112  1.00  0.00     0.000 C 
BRANCH  21  22
ATOM     22  C   UNL     1     -15.967   0.760  -0.083  1.00  0.00     0.000 C 
BRANCH  22  23
ATOM     23  C   UNL     1     -16.612   0.372  -1.428  1.00  0.00     0.000 C 
BRANCH  23  24
ATOM     24  C   UNL     1     -16.954  -1.122  -1.588  1.00  0.00    -0.000 C 
BRANCH  24  25
ATOM     25  C   UNL     1     -16.890  -1.656  -3.032  1.00  0.00    -0.000 C 
BRANCH  25  26
ATOM     26  C   UNL     1     -16.459  -3.126  -3.104  1.00  0.00    -0.000 C 
BRANCH  26  27
ATOM     27  C   UNL     1     -15.427  -3.455  -2.016  1.00  0.00    -0.000 C 
BRANCH  27  28
ATOM     28  C   UNL     1     -14.760  -4.827  -2.216  1.00  0.00    -0.000 C 
BRANCH  28  29
ATOM     29  C   UNL     1     -13.407  -4.747  -2.952  1.00  0.00    -0.000 C 
BRANCH  29  30
ATOM     30  C   UNL     1     -13.521  -3.999  -4.294  1.00  0.00    -0.000 C 
BRANCH  30  31
ATOM     31  C   UNL     1     -13.949  -4.920  -5.446  1.00  0.00    -0.003 C 
ATOM     32  C   UNL     1     -15.326  -4.552  -6.002  1.00  0.00     0.004 C 
ENDBRANCH  30  31
ENDBRANCH  29  30
ENDBRANCH  28  29
ENDBRANCH  27  28
ENDBRANCH  26  27
ENDBRANCH  25  26
ENDBRANCH  24  25
ENDBRANCH  23  24
ENDBRANCH  22  23
ENDBRANCH  21  22
ENDBRANCH  20  21
ENDBRANCH  19  20
ENDBRANCH  18  19
ENDBRANCH   1  18
TORSDOF 28
ENDMDL
MODEL 2
REMARK VINA RESULT:     3.972      0.916      1.875
REMARK INTER + INTRA:           9.183
REMARK INTER:                  10.272
REMARK INTRA:                  -1.089
REMARK UNBOUND:                -1.290
REMARK SMILES CCCCCCCCCCCCCCCCCCCCCCCCCCCCCC(=O)[O-]
REMARK SMILES IDX 16 1 17 2 18 3 19 4 20 5 21 6 22 7 23 8 24 9 25 10 26 11
REMARK SMILES IDX 27 12 28 13 29 14 30 15 31 16 32 17 15 18 14 19 13 20 12 21
REMARK SMILES IDX 11 22 10 23 9 24 8 25 7 26 6 27 5 28 4 29 3 30 2 31 1 32
REMARK H PARENT
REMARK Flexibility Score: inf
ROOT
ATOM      1  C   UNL     1      -9.760   3.837   0.291  1.00  0.00     0.000 C 
ENDROOT
BRANCH   1   2
ATOM      2  C   UNL     1      -8.423   3.497   0.967  1.00  0.00     0.000 C 
BRANCH   2   3
ATOM      3  C   UNL     1      -7.712   2.293   0.325  1.00  0.00     0.000 C 
BRANCH   3   4
ATOM      4  C   UNL     1      -6.172   2.410   0.328  1.00  0.00     0.000 C 
BRANCH   4   5
ATOM      5  C   UNL     1      -5.680   3.480   1.319  1.00  0.00     0.000 C 
BRANCH   5   6
ATOM      6  C   UNL     1      -4.153   3.674   1.286  1.00  0.00     0.000 C 
BRANCH   6   7
ATOM      7  C   UNL     1      -3.340   2.513   1.903  1.00  0.00     0.000 C 
BRANCH   7   8
ATOM      8  C   UNL     1      -3.461   2.406   3.437  1.00  0.00     0.000 C 
BRANCH   8   9
ATOM      9  C   UNL     1      -2.916   1.104   4.052  1.00  0.00     0.000 C 
BRANCH   9  10
ATOM     10  C   UNL     1      -1.529   1.224   4.716  1.00  0.00     0.000 C 
BRANCH  10  11
ATOM     11  C   UNL     1      -0.608   0.003   4.524  1.00  0.00     0.000 C 
BRANCH  11  12
ATOM     12  C   UNL     1       0.398  -0.241   5.668  1.00  0.00     0.000 C 
BRANCH  12  13
ATOM     13  C   UNL     1       1.692  -0.961   5.251  1.00  0.00     0.006 C 
BRANCH  13  14
ATOM     14  C   UNL     1       2.949  -0.111   5.487  1.00  0.00     0.053 C 
BRANCH  14  15
ATOM     15  C   UNL     1       2.847   1.208   4.787  1.00  0.00     0.041 C 
ATOM     16  O   UNL     1       2.711   2.270   5.449  1.00  0.00    -0.550 OA
ATOM     17  O   UNL     1       2.876   1.263   3.398  1.00  0.00    -0.550 OA
ENDBRANCH  14  15
ENDBRANCH  13  14
ENDBRANCH  12  13
ENDBRANCH  11  12
ENDBRANCH  10  11
ENDBRANCH   9  10
ENDBRANCH   8   9
ENDBRANCH   7   8
ENDBRANCH   6   7
ENDBRANCH   5   6
ENDBRANCH   4   5
ENDBRANCH   3   4
ENDBRANCH   2   3
ENDBRANCH   1   2
BRANCH   1  18
ATOM     18  C   UNL     1     -10.941   3.421   1.176  1.00  0.00     0.000 C 
BRANCH  18  19
ATOM     19  C   UNL     1     -12.281   3.679   0.470  1.00  0.00     0.000 C 
BRANCH  19  20
ATOM     20  C   UNL     1     -13.327   2.590   0.759  1.00  0.00     0.000 C 
BRANCH  20  21
ATOM     21  C   UNL     1     -14.382   2.467  -0.354  1.00  0.00     0.000 C 
BRANCH  21  22
ATOM     22  C   UNL     1     -15.579   1.579   0.050  1.00  0.00     0.000 C 
BRANCH  22  23
ATOM     23  C   UNL     1     -16.018   0.583  -1.042  1.00  0.00     0.000 C 
BRANCH  23  24
ATOM     24  C   UNL     1     -16.422  -0.814  -0.534  1.00  0.00    -0.000 C 
BRANCH  24  25
ATOM     25  C   UNL     1     -17.096  -1.721  -1.582  1.00  0.00    -0.000 C 
BRANCH  25  26
ATOM     26  C   UNL     1     -16.430  -1.633  -2.961  1.00  0.00    -0.000 C 
BRANCH  26  27
ATOM     27  C   UNL     1     -17.059  -2.629  -3.944  1.00  0.00    -0.000 C 
BRANCH  27  28
ATOM     28  C   UNL     1     -16.538  -4.066  -3.761  1.00  0.00    -0.000 C 
BRANCH  28  29
ATOM     29  C   UNL     1     -15.336  -4.399  -4.670  1.00  0.00    -0.000 C 
BRANCH  29  30
ATOM     30  C   UNL     1     -14.021  -3.809  -4.129  1.00  0.00    -0.000 C 
BRANCH  30  31
ATOM     31  C   UNL     1     -13.443  -4.627  -2.965  1.00  0.00    -0.003 C 
ATOM     32  C   UNL     1     -14.190  -4.377  -1.654  1.00  0.00     0.004 C 
ENDBRANCH  30  31
ENDBRANCH  29  30
ENDBRANCH  28  29
ENDBRANCH  27  28
ENDBRANCH  26  27
ENDBRANCH  25  26
ENDBRANCH  24  25
ENDBRANCH  23  24
ENDBRANCH  22  23
ENDBRANCH  21  22
ENDBRANCH  20  21
ENDBRANCH  19  20
ENDBRANCH  18  19
ENDBRANCH   1  18
TORSDOF 28
ENDMDL
MODEL 3
REMARK VINA RESULT:     4.238      5.606     15.019
REMARK INTER + INTRA:           9.885
REMARK INTER:                  11.278
REMARK INTRA:                  -1.393
REMARK UNBOUND:                -1.290
REMARK SMILES CCCCCCCCCCCCCCCCCCCCCCCCCCCCCC(=O)[O-]
REMARK SMILES IDX 16 1 17 2 18 3 19 4 20 5 21 6 22 7 23 8 24 9 25 10 26 11
REMARK SMILES IDX 27 12 28 13 29 14 30 15 31 16 32 17 15 18 14 19 13 20 12 21
REMARK SMILES IDX 11 22 10 23 9 24 8 25 7 26 6 27 5 28 4 29 3 30 2 31 1 32
REMARK H PARENT
REMARK Flexibility Score: inf
ROOT
ATOM      1  C   UNL     1      -9.796   3.569   0.375  1.00  0.00     0.000 C 
ENDROOT
BRANCH   1   2
ATOM      2  C   UNL     1     -10.974   2.835   1.033  1.00  0.00     0.000 C 
BRANCH   2   3
ATOM      3  C   UNL     1     -12.345   3.352   0.563  1.00  0.00     0.000 C 
BRANCH   3   4
ATOM      4  C   UNL     1     -13.419   2.247   0.453  1.00  0.00     0.000 C 
BRANCH   4   5
ATOM      5  C   UNL     1     -14.641   2.715  -0.358  1.00  0.00     0.000 C 
BRANCH   5   6
ATOM      6  C   UNL     1     -15.919   1.921  -0.032  1.00  0.00     0.000 C 
BRANCH   6   7
ATOM      7  C   UNL     1     -15.736   0.386  -0.001  1.00  0.00     0.000 C 
BRANCH   7   8
ATOM      8  C   UNL     1     -16.110  -0.318  -1.321  1.00  0.00     0.000 C 
BRANCH   8   9
ATOM      9  C   UNL     1     -17.118  -1.476  -1.187  1.00  0.00     0.000 C 
BRANCH   9  10
ATOM     10  C   UNL     1     -16.882  -2.662  -2.144  1.00  0.00     0.000 C 
BRANCH  10  11
ATOM     11  C   UNL     1     -15.498  -3.331  -2.023  1.00  0.00     0.000 C 
BRANCH  11  12
ATOM     12  C   UNL     1     -15.190  -4.391  -3.100  1.00  0.00     0.000 C 
BRANCH  12  13
ATOM     13  C   UNL     1     -13.862  -4.185  -3.851  1.00  0.00     0.006 C 
BRANCH  13  14
ATOM     14  C   UNL     1     -14.037  -4.170  -5.376  1.00  0.00     0.053 C 
BRANCH  14  15
ATOM     15  C   UNL     1     -15.097  -3.195  -5.787  1.00  0.00     0.041 C 
ATOM     16  O   UNL     1     -16.059  -3.569  -6.508  1.00  0.00    -0.550 OA
ATOM     17  O   UNL     1     -15.010  -1.865  -5.392  1.00  0.00    -0.550 OA
ENDBRANCH  14  15
ENDBRANCH  13  14
ENDBRANCH  12  13
ENDBRANCH  11  12
ENDBRANCH  10  11
ENDBRANCH   9  10
ENDBRANCH   8   9
ENDBRANCH   7   8
ENDBRANCH   6   7
ENDBRANCH   5   6
ENDBRANCH   4   5
ENDBRANCH   3   4
ENDBRANCH   2   3
ENDBRANCH   1   2
BRANCH   1  18
ATOM     18  C   UNL     1      -8.461   2.945   0.797  1.00  0.00     0.000 C 
BRANCH  18  19
ATOM     19  C   UNL     1      -7.460   4.025   1.240  1.00  0.00     0.000 C 
BRANCH  19  20
ATOM     20  C   UNL     1      -6.166   3.436   1.825  1.00  0.00     0.000 C 
BRANCH  20  21
ATOM     21  C   UNL     1      -4.904   3.926   1.095  1.00  0.00     0.000 C 
BRANCH  21  22
ATOM     22  C   UNL     1      -3.648   3.102   1.450  1.00  0.00     0.000 C 
BRANCH  22  23
ATOM     23  C   UNL     1      -3.862   2.094   2.595  1.00  0.00     0.000 C 
BRANCH  23  24
ATOM     24  C   UNL     1      -2.825   2.161   3.734  1.00  0.00    -0.000 C 
BRANCH  24  25
ATOM     25  C   UNL     1      -2.736   0.897   4.612  1.00  0.00    -0.000 C 
BRANCH  25  26
ATOM     26  C   UNL     1      -1.361   0.223   4.545  1.00  0.00    -0.000 C 
BRANCH  26  27
ATOM     27  C   UNL     1      -0.292   1.194   4.024  1.00  0.00    -0.000 C 
BRANCH  27  28
ATOM     28  C   UNL     1       0.914   1.325   4.972  1.00  0.00    -0.000 C 
BRANCH  28  29
ATOM     29  C   UNL     1       2.201   0.684   4.414  1.00  0.00    -0.000 C 
BRANCH  29  30
ATOM     30  C   UNL     1       3.092   0.107   5.530  1.00  0.00    -0.000 C 
BRANCH  30  31
ATOM     31  C   UNL     1       3.102  -1.428   5.540  1.00  0.00    -0.003 C 
ATOM     32  C   UNL     1       2.111  -2.008   6.552  1.00  0.00     0.004 C 
ENDBRANCH  30  31
ENDBRANCH  29  30
ENDBRANCH  28  29
ENDBRANCH  27  28
ENDBRANCH  26  27
ENDBRANCH  25  26
ENDBRANCH  24  25
ENDBRANCH  23  24
ENDBRANCH  22  23
ENDBRANCH  21  22
ENDBRANCH  20  21
ENDBRANCH  19  20
ENDBRANCH  18  19
ENDBRANCH   1  18
TORSDOF 28
ENDMDL
MODEL 4
REMARK VINA RESULT:     4.388      5.550     15.289
REMARK INTER + INTRA:          10.280
REMARK INTER:                  11.560
REMARK INTRA:                  -1.280
REMARK UNBOUND:                -1.290
REMARK SMILES CCCCCCCCCCCCCCCCCCCCCCCCCCCCCC(=O)[O-]
REMARK SMILES IDX 16 1 17 2 18 3 19 4 20 5 21 6 22 7 23 8 24 9 25 10 26 11
REMARK SMILES IDX 27 12 28 13 29 14 30 15 31 16 32 17 15 18 14 19 13 20 12 21
REMARK SMILES IDX 11 22 10 23 9 24 8 25 7 26 6 27 5 28 4 29 3 30 2 31 1 32
REMARK H PARENT
REMARK Flexibility Score: inf
ROOT
ATOM      1  C   UNL     1      -7.959   2.609   0.013  1.00  0.00     0.000 C 
ENDROOT
BRANCH   1   2
ATOM      2  C   UNL     1      -8.710   3.695   0.798  1.00  0.00     0.000 C 
BRANCH   2   3
ATOM      3  C   UNL     1     -10.169   3.867   0.341  1.00  0.00     0.000 C 
BRANCH   3   4
ATOM      4  C   UNL     1     -11.153   2.895   1.030  1.00  0.00     0.000 C 
BRANCH   4   5
ATOM      5  C   UNL     1     -12.617   3.221   0.684  1.00  0.00     0.000 C 
BRANCH   5   6
ATOM      6  C   UNL     1     -13.486   1.964   0.498  1.00  0.00     0.000 C 
BRANCH   6   7
ATOM      7  C   UNL     1     -14.774   2.185  -0.327  1.00  0.00     0.000 C 
BRANCH   7   8
ATOM      8  C   UNL     1     -15.899   1.176  -0.018  1.00  0.00     0.000 C 
BRANCH   8   9
ATOM      9  C   UNL     1     -17.015   1.089  -1.077  1.00  0.00     0.000 C 
BRANCH   9  10
ATOM     10  C   UNL     1     -16.966  -0.162  -1.977  1.00  0.00     0.000 C 
BRANCH  10  11
ATOM     11  C   UNL     1     -16.375  -1.421  -1.311  1.00  0.00     0.000 C 
BRANCH  11  12
ATOM     12  C   UNL     1     -16.636  -2.741  -2.064  1.00  0.00     0.000 C 
BRANCH  12  13
ATOM     13  C   UNL     1     -16.624  -2.626  -3.598  1.00  0.00     0.006 C 
BRANCH  13  14
ATOM     14  C   UNL     1     -15.236  -2.282  -4.159  1.00  0.00     0.053 C 
BRANCH  14  15
ATOM     15  C   UNL     1     -14.907  -3.138  -5.342  1.00  0.00     0.041 C 
ATOM     16  O   UNL     1     -14.093  -4.092  -5.230  1.00  0.00    -0.550 OA
ATOM     17  O   UNL     1     -15.479  -2.865  -6.580  1.00  0.00    -0.550 OA
ENDBRANCH  14  15
ENDBRANCH  13  14
ENDBRANCH  12  13
ENDBRANCH  11  12
ENDBRANCH  10  11
ENDBRANCH   9  10
ENDBRANCH   8   9
ENDBRANCH   7   8
ENDBRANCH   6   7
ENDBRANCH   5   6
ENDBRANCH   4   5
ENDBRANCH   3   4
ENDBRANCH   2   3
ENDBRANCH   1   2
BRANCH   1  18
ATOM     18  C   UNL     1      -6.486   2.552   0.435  1.00  0.00     0.000 C 
BRANCH  18  19
ATOM     19  C   UNL     1      -6.199   3.536   1.580  1.00  0.00     0.000 C 
BRANCH  19  20
ATOM     20  C   UNL     1      -4.746   4.038   1.585  1.00  0.00     0.000 C 
BRANCH  20  21
ATOM     21  C   UNL     1      -3.730   2.928   1.264  1.00  0.00     0.000 C 
BRANCH  21  22
ATOM     22  C   UNL     1      -2.806   2.599   2.457  1.00  0.00     0.000 C 
BRANCH  22  23
ATOM     23  C   UNL     1      -3.258   1.377   3.281  1.00  0.00     0.000 C 
BRANCH  23  24
ATOM     24  C   UNL     1      -2.460   1.124   4.575  1.00  0.00    -0.000 C 
BRANCH  24  25
ATOM     25  C   UNL     1      -1.237   0.199   4.419  1.00  0.00    -0.000 C 
BRANCH  25  26
ATOM     26  C   UNL     1       0.003   0.724   5.152  1.00  0.00    -0.000 C 
BRANCH  26  27
ATOM     27  C   UNL     1       1.277   0.477   4.331  1.00  0.00    -0.000 C 
BRANCH  27  28
ATOM     28  C   UNL     1       2.565   0.799   5.110  1.00  0.00    -0.000 C 
BRANCH  28  29
ATOM     29  C   UNL     1       3.121  -0.408   5.895  1.00  0.00    -0.000 C 
BRANCH  29  30
ATOM     30  C   UNL     1       2.430  -1.725   5.497  1.00  0.00    -0.000 C 
BRANCH  30  31
ATOM     31  C   UNL     1       2.682  -2.850   6.512  1.00  0.00    -0.003 C 
ATOM     32  C   UNL     1       3.106  -2.314   7.880  1.00  0.00     0.004 C 
ENDBRANCH  30  31
ENDBRANCH  29  30
ENDBRANCH  28  29
ENDBRANCH  27  28
ENDBRANCH  26  27
ENDBRANCH  25  26
ENDBRANCH  24  25
ENDBRANCH  23  24
ENDBRANCH  22  23
ENDBRANCH  21  22
ENDBRANCH  20  21
ENDBRANCH  19  20
ENDBRANCH  18  19
ENDBRANCH   1  18
TORSDOF 28
ENDMDL
MODEL 5
REMARK VINA RESULT:     4.609      1.461      3.537
REMARK INTER + INTRA:          10.863
REMARK INTER:                  11.340
REMARK INTRA:                  -0.477
REMARK UNBOUND:                -1.290
REMARK SMILES CCCCCCCCCCCCCCCCCCCCCCCCCCCCCC(=O)[O-]
REMARK SMILES IDX 16 1 17 2 18 3 19 4 20 5 21 6 22 7 23 8 24 9 25 10 26 11
REMARK SMILES IDX 27 12 28 13 29 14 30 15 31 16 32 17 15 18 14 19 13 20 12 21
REMARK SMILES IDX 11 22 10 23 9 24 8 25 7 26 6 27 5 28 4 29 3 30 2 31 1 32
REMARK H PARENT
REMARK Flexibility Score: inf
ROOT
ATOM      1  C   UNL     1      -7.419   3.669   1.078  1.00  0.00     0.000 C 
ENDROOT
BRANCH   1   2
ATOM      2  C   UNL     1      -6.059   3.096   0.654  1.00  0.00     0.000 C 
BRANCH   2   3
ATOM      3  C   UNL     1      -5.038   3.051   1.804  1.00  0.00     0.000 C 
BRANCH   3   4
ATOM      4  C   UNL     1      -3.575   3.220   1.341  1.00  0.00     0.000 C 
BRANCH   4   5
ATOM      5  C   UNL     1      -2.587   2.531   2.299  1.00  0.00     0.000 C 
BRANCH   5   6
ATOM      6  C   UNL     1      -3.288   1.726   3.408  1.00  0.00     0.000 C 
BRANCH   6   7
ATOM      7  C   UNL     1      -2.488   1.608   4.726  1.00  0.00     0.000 C 
BRANCH   7   8
ATOM      8  C   UNL     1      -1.836   0.228   4.945  1.00  0.00     0.000 C 
BRANCH   8   9
ATOM      9  C   UNL     1      -0.397   0.088   4.412  1.00  0.00     0.000 C 
BRANCH   9  10
ATOM     10  C   UNL     1       0.516   1.304   4.664  1.00  0.00     0.000 C 
BRANCH  10  11
ATOM     11  C   UNL     1       1.952   1.163   4.122  1.00  0.00     0.000 C 
BRANCH  11  12
ATOM     12  C   UNL     1       3.067   1.330   5.176  1.00  0.00     0.000 C 
BRANCH  12  13
ATOM     13  C   UNL     1       3.046   0.291   6.311  1.00  0.00     0.006 C 
BRANCH  13  14
ATOM     14  C   UNL     1       2.156  -0.919   5.995  1.00  0.00     0.053 C 
BRANCH  14  15
ATOM     15  C   UNL     1       2.800  -2.193   6.448  1.00  0.00     0.041 C 
ATOM     16  O   UNL     1       3.123  -3.075   5.610  1.00  0.00    -0.550 OA
ATOM     17  O   UNL     1       3.022  -2.418   7.803  1.00  0.00    -0.550 OA
ENDBRANCH  14  15
ENDBRANCH  13  14
ENDBRANCH  12  13
ENDBRANCH  11  12
ENDBRANCH  10  11
ENDBRANCH   9  10
ENDBRANCH   8   9
ENDBRANCH   7   8
ENDBRANCH   6   7
ENDBRANCH   5   6
ENDBRANCH   4   5
ENDBRANCH   3   4
ENDBRANCH   2   3
ENDBRANCH   1   2
BRANCH   1  18
ATOM     18  C   UNL     1      -8.562   2.975   0.327  1.00  0.00     0.000 C 
BRANCH  18  19
ATOM     19  C   UNL     1      -9.834   3.837   0.335  1.00  0.00     0.000 C 
BRANCH  19  20
ATOM     20  C   UNL     1     -11.020   3.145   1.026  1.00  0.00     0.000 C 
BRANCH  20  21
ATOM     21  C   UNL     1     -12.379   3.565   0.440  1.00  0.00     0.000 C 
BRANCH  21  22
ATOM     22  C   UNL     1     -13.489   2.523   0.694  1.00  0.00     0.000 C 
BRANCH  22  23
ATOM     23  C   UNL     1     -14.537   2.434  -0.433  1.00  0.00     0.000 C 
BRANCH  23  24
ATOM     24  C   UNL     1     -15.878   1.786  -0.037  1.00  0.00    -0.000 C 
BRANCH  24  25
ATOM     25  C   UNL     1     -16.367   0.669  -0.979  1.00  0.00    -0.000 C 
BRANCH  25  26
ATOM     26  C   UNL     1     -16.737  -0.619  -0.233  1.00  0.00    -0.000 C 
BRANCH  26  27
ATOM     27  C   UNL     1     -17.118  -1.737  -1.213  1.00  0.00    -0.000 C 
BRANCH  27  28
ATOM     28  C   UNL     1     -15.898  -2.372  -1.903  1.00  0.00    -0.000 C 
BRANCH  28  29
ATOM     29  C   UNL     1     -16.167  -2.774  -3.369  1.00  0.00    -0.000 C 
BRANCH  29  30
ATOM     30  C   UNL     1     -15.384  -4.036  -3.776  1.00  0.00    -0.000 C 
BRANCH  30  31
ATOM     31  C   UNL     1     -13.928  -3.728  -4.155  1.00  0.00    -0.003 C 
ATOM     32  C   UNL     1     -13.259  -4.894  -4.885  1.00  0.00     0.004 C 
ENDBRANCH  30  31
ENDBRANCH  29  30
ENDBRANCH  28  29
ENDBRANCH  27  28
ENDBRANCH  26  27
ENDBRANCH  25  26
ENDBRANCH  24  25
ENDBRANCH  23  24
ENDBRANCH  22  23
ENDBRANCH  21  22
ENDBRANCH  20  21
ENDBRANCH  19  20
ENDBRANCH  18  19
ENDBRANCH   1  18
TORSDOF 28
ENDMDL
MODEL 6
REMARK VINA RESULT:     4.629      1.415      2.183
REMARK INTER + INTRA:          10.916
REMARK INTER:                  12.143
REMARK INTRA:                  -1.227
REMARK UNBOUND:                -1.290
REMARK SMILES CCCCCCCCCCCCCCCCCCCCCCCCCCCCCC(=O)[O-]
REMARK SMILES IDX 16 1 17 2 18 3 19 4 20 5 21 6 22 7 23 8 24 9 25 10 26 11
REMARK SMILES IDX 27 12 28 13 29 14 30 15 31 16 32 17 15 18 14 19 13 20 12 21
REMARK SMILES IDX 11 22 10 23 9 24 8 25 7 26 6 27 5 28 4 29 3 30 2 31 1 32
REMARK H PARENT
REMARK Flexibility Score: inf
ROOT
ATOM      1  C   UNL     1      -9.372   3.918   0.407  1.00  0.00     0.000 C 
ENDROOT
BRANCH   1   2
ATOM      2  C   UNL     1      -8.160   3.178   0.991  1.00  0.00     0.000 C 
BRANCH   2   3
ATOM      3  C   UNL     1      -7.405   2.338  -0.053  1.00  0.00     0.000 C 
BRANCH   3   4
ATOM      4  C   UNL     1      -5.925   2.085   0.306  1.00  0.00     0.000 C 
BRANCH   4   5
ATOM      5  C   UNL     1      -5.445   3.009   1.439  1.00  0.00     0.000 C 
BRANCH   5   6
ATOM      6  C   UNL     1      -3.992   3.485   1.252  1.00  0.00     0.000 C 
BRANCH   6   7
ATOM      7  C   UNL     1      -2.952   2.743   2.123  1.00  0.00     0.000 C 
BRANCH   7   8
ATOM      8  C   UNL     1      -3.568   1.901   3.258  1.00  0.00     0.000 C 
BRANCH   8   9
ATOM      9  C   UNL     1      -2.555   1.207   4.188  1.00  0.00     0.000 C 
BRANCH   9  10
ATOM     10  C   UNL     1      -1.121   1.771   4.132  1.00  0.00     0.000 C 
BRANCH  10  11
ATOM     11  C   UNL     1      -0.013   0.775   4.526  1.00  0.00     0.000 C 
BRANCH  11  12
ATOM     12  C   UNL     1       1.427   1.275   4.292  1.00  0.00     0.000 C 
BRANCH  12  13
ATOM     13  C   UNL     1       2.532   0.319   4.776  1.00  0.00     0.006 C 
BRANCH  13  14
ATOM     14  C   UNL     1       2.219  -0.311   6.141  1.00  0.00     0.053 C 
BRANCH  14  15
ATOM     15  C   UNL     1       2.701  -1.727   6.203  1.00  0.00     0.041 C 
ATOM     16  O   UNL     1       3.124  -2.301   5.165  1.00  0.00    -0.550 OA
ATOM     17  O   UNL     1       2.659  -2.425   7.405  1.00  0.00    -0.550 OA
ENDBRANCH  14  15
ENDBRANCH  13  14
ENDBRANCH  12  13
ENDBRANCH  11  12
ENDBRANCH  10  11
ENDBRANCH   9  10
ENDBRANCH   8   9
ENDBRANCH   7   8
ENDBRANCH   6   7
ENDBRANCH   5   6
ENDBRANCH   4   5
ENDBRANCH   3   4
ENDBRANCH   2   3
ENDBRANCH   1   2
BRANCH   1  18
ATOM     18  C   UNL     1     -10.666   3.478   1.102  1.00  0.00     0.000 C 
BRANCH  18  19
ATOM     19  C   UNL     1     -11.894   3.771   0.224  1.00  0.00     0.000 C 
BRANCH  19  20
ATOM     20  C   UNL     1     -13.186   3.148   0.778  1.00  0.00     0.000 C 
BRANCH  20  21
ATOM     21  C   UNL     1     -14.035   2.470  -0.310  1.00  0.00     0.000 C 
BRANCH  21  22
ATOM     22  C   UNL     1     -15.507   2.273   0.114  1.00  0.00     0.000 C 
BRANCH  22  23
ATOM     23  C   UNL     1     -16.276   1.253  -0.748  1.00  0.00     0.000 C 
BRANCH  23  24
ATOM     24  C   UNL     1     -16.837   0.037   0.014  1.00  0.00    -0.000 C 
BRANCH  24  25
ATOM     25  C   UNL     1     -16.168  -1.310  -0.322  1.00  0.00    -0.000 C 
BRANCH  25  26
ATOM     26  C   UNL     1     -16.444  -1.770  -1.758  1.00  0.00    -0.000 C 
BRANCH  26  27
ATOM     27  C   UNL     1     -16.200  -3.278  -1.914  1.00  0.00    -0.000 C 
BRANCH  27  28
ATOM     28  C   UNL     1     -15.575  -3.648  -3.270  1.00  0.00    -0.000 C 
BRANCH  28  29
ATOM     29  C   UNL     1     -15.524  -2.467  -4.262  1.00  0.00    -0.000 C 
BRANCH  29  30
ATOM     30  C   UNL     1     -14.997  -2.894  -5.644  1.00  0.00    -0.000 C 
BRANCH  30  31
ATOM     31  C   UNL     1     -15.624  -4.208  -6.132  1.00  0.00    -0.003 C 
ATOM     32  C   UNL     1     -15.260  -4.521  -7.585  1.00  0.00     0.004 C 
ENDBRANCH  30  31
ENDBRANCH  29  30
ENDBRANCH  28  29
ENDBRANCH  27  28
ENDBRANCH  26  27
ENDBRANCH  25  26
ENDBRANCH  24  25
ENDBRANCH  23  24
ENDBRANCH  22  23
ENDBRANCH  21  22
ENDBRANCH  20  21
ENDBRANCH  19  20
ENDBRANCH  18  19
ENDBRANCH   1  18
TORSDOF 28
ENDMDL
MODEL 7
REMARK VINA RESULT:     5.348      5.952     14.922
REMARK INTER + INTRA:          12.812
REMARK INTER:                  13.780
REMARK INTRA:                  -0.968
REMARK UNBOUND:                -1.290
REMARK SMILES CCCCCCCCCCCCCCCCCCCCCCCCCCCCCC(=O)[O-]
REMARK SMILES IDX 16 1 17 2 18 3 19 4 20 5 21 6 22 7 23 8 24 9 25 10 26 11
REMARK SMILES IDX 27 12 28 13 29 14 30 15 31 16 32 17 15 18 14 19 13 20 12 21
REMARK SMILES IDX 11 22 10 23 9 24 8 25 7 26 6 27 5 28 4 29 3 30 2 31 1 32
REMARK H PARENT
REMARK Flexibility Score: inf
ROOT
ATOM      1  C   UNL     1     -13.081   2.450   0.367  1.00  0.00     0.000 C 
ENDROOT
BRANCH   1   2
ATOM      2  C   UNL     1     -14.548   2.537  -0.080  1.00  0.00     0.000 C 
BRANCH   2   3
ATOM      3  C   UNL     1     -15.160   1.164  -0.409  1.00  0.00     0.000 C 
BRANCH   3   4
ATOM      4  C   UNL     1     -15.842   0.485   0.800  1.00  0.00     0.000 C 
BRANCH   4   5
ATOM      5  C   UNL     1     -17.062  -0.351   0.374  1.00  0.00     0.000 C 
BRANCH   5   6
ATOM      6  C   UNL     1     -16.825  -1.144  -0.925  1.00  0.00     0.000 C 
BRANCH   6   7
ATOM      7  C   UNL     1     -15.919  -2.386  -0.767  1.00  0.00     0.000 C 
BRANCH   7   8
ATOM      8  C   UNL     1     -15.864  -3.287  -2.017  1.00  0.00     0.000 C 
BRANCH   8   9
ATOM      9  C   UNL     1     -14.652  -4.235  -2.094  1.00  0.00     0.000 C 
BRANCH   9  10
ATOM     10  C   UNL     1     -14.478  -4.969  -3.438  1.00  0.00     0.000 C 
BRANCH  10  11
ATOM     11  C   UNL     1     -15.597  -4.714  -4.468  1.00  0.00     0.000 C 
BRANCH  11  12
ATOM     12  C   UNL     1     -15.357  -3.518  -5.411  1.00  0.00     0.000 C 
BRANCH  12  13
ATOM     13  C   UNL     1     -16.080  -3.605  -6.766  1.00  0.00     0.006 C 
BRANCH  13  14
ATOM     14  C   UNL     1     -16.022  -5.009  -7.383  1.00  0.00     0.053 C 
BRANCH  14  15
ATOM     15  C   UNL     1     -15.029  -5.066  -8.501  1.00  0.00     0.041 C 
ATOM     16  O   UNL     1     -15.419  -5.086  -9.698  1.00  0.00    -0.550 OA
ATOM     17  O   UNL     1     -13.668  -5.123  -8.222  1.00  0.00    -0.550 OA
ENDBRANCH  14  15
ENDBRANCH  13  14
ENDBRANCH  12  13
ENDBRANCH  11  12
ENDBRANCH  10  11
ENDBRANCH   9  10
ENDBRANCH   8   9
ENDBRANCH   7   8
ENDBRANCH   6   7
ENDBRANCH   5   6
ENDBRANCH   4   5
ENDBRANCH   3   4
ENDBRANCH   2   3
ENDBRANCH   1   2
BRANCH   1  18
ATOM     18  C   UNL     1     -12.578   3.814   0.854  1.00  0.00     0.000 C 
BRANCH  18  19
ATOM     19  C   UNL     1     -11.219   4.160   0.226  1.00  0.00     0.000 C 
BRANCH  19  20
ATOM     20  C   UNL     1     -10.077   3.272   0.747  1.00  0.00     0.000 C 
BRANCH  20  21
ATOM     21  C   UNL     1      -8.726   4.006   0.796  1.00  0.00     0.000 C 
BRANCH  21  22
ATOM     22  C   UNL     1      -7.584   3.125   1.349  1.00  0.00     0.000 C 
BRANCH  22  23
ATOM     23  C   UNL     1      -6.280   3.203   0.531  1.00  0.00     0.000 C 
BRANCH  23  24
ATOM     24  C   UNL     1      -4.994   3.393   1.359  1.00  0.00    -0.000 C 
BRANCH  24  25
ATOM     25  C   UNL     1      -4.346   2.092   1.868  1.00  0.00    -0.000 C 
BRANCH  25  26
ATOM     26  C   UNL     1      -3.113   2.344   2.745  1.00  0.00    -0.000 C 
BRANCH  26  27
ATOM     27  C   UNL     1      -3.297   1.743   4.145  1.00  0.00    -0.000 C 
BRANCH  27  28
ATOM     28  C   UNL     1      -2.116   0.855   4.577  1.00  0.00    -0.000 C 
BRANCH  28  29
ATOM     29  C   UNL     1      -0.740   1.443   4.200  1.00  0.00    -0.000 C 
BRANCH  29  30
ATOM     30  C   UNL     1       0.421   0.638   4.811  1.00  0.00    -0.000 C 
BRANCH  30  31
ATOM     31  C   UNL     1       1.786   1.050   4.242  1.00  0.00    -0.003 C 
ATOM     32  C   UNL     1       2.927   0.191   4.790  1.00  0.00     0.004 C 
ENDBRANCH  30  31
ENDBRANCH  29  30
ENDBRANCH  28  29
ENDBRANCH  27  28
ENDBRANCH  26  27
ENDBRANCH  25  26
ENDBRANCH  24  25
ENDBRANCH  23  24
ENDBRANCH  22  23
ENDBRANCH  21  22
ENDBRANCH  20  21
ENDBRANCH  19  20
ENDBRANCH  18  19
ENDBRANCH   1  18
TORSDOF 28
ENDMDL
MODEL 8
REMARK VINA RESULT:     5.678      1.094      2.252
REMARK INTER + INTRA:          13.682
REMARK INTER:                  14.312
REMARK INTRA:                  -0.630
REMARK UNBOUND:                -1.290
REMARK SMILES CCCCCCCCCCCCCCCCCCCCCCCCCCCCCC(=O)[O-]
REMARK SMILES IDX 16 1 17 2 18 3 19 4 20 5 21 6 22 7 23 8 24 9 25 10 26 11
REMARK SMILES IDX 27 12 28 13 29 14 30 15 31 16 32 17 15 18 14 19 13 20 12 21
REMARK SMILES IDX 11 22 10 23 9 24 8 25 7 26 6 27 5 28 4 29 3 30 2 31 1 32
REMARK H PARENT
REMARK Flexibility Score: inf
ROOT
ATOM      1  C   UNL     1     -12.451   2.898   1.183  1.00  0.00     0.000 C 
ENDROOT
BRANCH   1   2
ATOM      2  C   UNL     1     -11.989   3.903   0.117  1.00  0.00     0.000 C 
BRANCH   2   3
ATOM      3  C   UNL     1     -10.685   4.626   0.495  1.00  0.00     0.000 C 
BRANCH   3   4
ATOM      4  C   UNL     1      -9.412   3.916  -0.016  1.00  0.00     0.000 C 
BRANCH   4   5
ATOM      5  C   UNL     1      -8.642   3.230   1.126  1.00  0.00     0.000 C 
BRANCH   5   6
ATOM      6  C   UNL     1      -7.128   3.138   0.859  1.00  0.00     0.000 C 
BRANCH   6   7
ATOM      7  C   UNL     1      -6.330   4.413   1.217  1.00  0.00     0.000 C 
BRANCH   7   8
ATOM      8  C   UNL     1      -4.988   4.137   1.924  1.00  0.00     0.000 C 
BRANCH   8   9
ATOM      9  C   UNL     1      -4.697   2.655   2.231  1.00  0.00     0.000 C 
BRANCH   9  10
ATOM     10  C   UNL     1      -3.219   2.325   2.520  1.00  0.00     0.000 C 
BRANCH  10  11
ATOM     11  C   UNL     1      -2.917   1.912   3.974  1.00  0.00     0.000 C 
BRANCH  11  12
ATOM     12  C   UNL     1      -2.373   0.479   4.145  1.00  0.00     0.000 C 
BRANCH  12  13
ATOM     13  C   UNL     1      -1.074   0.372   4.964  1.00  0.00     0.006 C 
BRANCH  13  14
ATOM     14  C   UNL     1       0.067   1.219   4.384  1.00  0.00     0.053 C 
BRANCH  14  15
ATOM     15  C   UNL     1       1.400   0.606   4.685  1.00  0.00     0.041 C 
ATOM     16  O   UNL     1       1.480  -0.404   5.433  1.00  0.00    -0.550 OA
ATOM     17  O   UNL     1       2.559   1.165   4.159  1.00  0.00    -0.550 OA
ENDBRANCH  14  15
ENDBRANCH  13  14
ENDBRANCH  12  13
ENDBRANCH  11  12
ENDBRANCH  10  11
ENDBRANCH   9  10
ENDBRANCH   8   9
ENDBRANCH   7   8
ENDBRANCH   6   7
ENDBRANCH   5   6
ENDBRANCH   4   5
ENDBRANCH   3   4
ENDBRANCH   2   3
ENDBRANCH   1   2
BRANCH   1  18
ATOM     18  C   UNL     1     -13.459   1.904   0.596  1.00  0.00     0.000 C 
BRANCH  18  19
ATOM     19  C   UNL     1     -14.560   2.631  -0.193  1.00  0.00     0.000 C 
BRANCH  19  20
ATOM     20  C   UNL     1     -15.942   1.979  -0.028  1.00  0.00     0.000 C 
BRANCH  20  21
ATOM     21  C   UNL     1     -16.123   0.733  -0.913  1.00  0.00     0.000 C 
BRANCH  21  22
ATOM     22  C   UNL     1     -16.615  -0.498  -0.122  1.00  0.00     0.000 C 
BRANCH  22  23
ATOM     23  C   UNL     1     -16.222  -1.848  -0.753  1.00  0.00     0.000 C 
BRANCH  23  24
ATOM     24  C   UNL     1     -16.826  -2.125  -2.143  1.00  0.00    -0.000 C 
BRANCH  24  25
ATOM     25  C   UNL     1     -15.849  -1.967  -3.324  1.00  0.00    -0.000 C 
BRANCH  25  26
ATOM     26  C   UNL     1     -15.892  -3.153  -4.295  1.00  0.00    -0.000 C 
BRANCH  26  27
ATOM     27  C   UNL     1     -14.971  -2.916  -5.500  1.00  0.00    -0.000 C 
BRANCH  27  28
ATOM     28  C   UNL     1     -14.327  -4.211  -6.027  1.00  0.00    -0.000 C 
BRANCH  28  29
ATOM     29  C   UNL     1     -13.394  -4.889  -5.001  1.00  0.00    -0.000 C 
BRANCH  29  30
ATOM     30  C   UNL     1     -14.020  -4.942  -3.595  1.00  0.00    -0.000 C 
BRANCH  30  31
ATOM     31  C   UNL     1     -12.967  -5.093  -2.488  1.00  0.00    -0.003 C 
ATOM     32  C   UNL     1     -13.547  -4.836  -1.096  1.00  0.00     0.004 C 
ENDBRANCH  30  31
ENDBRANCH  29  30
ENDBRANCH  28  29
ENDBRANCH  27  28
ENDBRANCH  26  27
ENDBRANCH  25  26
ENDBRANCH  24  25
ENDBRANCH  23  24
ENDBRANCH  22  23
ENDBRANCH  21  22
ENDBRANCH  20  21
ENDBRANCH  19  20
ENDBRANCH  18  19
ENDBRANCH   1  18
TORSDOF 28
ENDMDL
MODEL 9
REMARK VINA RESULT:     5.710      1.255      2.483
REMARK INTER + INTRA:          13.767
REMARK INTER:                  15.063
REMARK INTRA:                  -1.296
REMARK UNBOUND:                -1.290
REMARK SMILES CCCCCCCCCCCCCCCCCCCCCCCCCCCCCC(=O)[O-]
REMARK SMILES IDX 16 1 17 2 18 3 19 4 20 5 21 6 22 7 23 8 24 9 25 10 26 11
REMARK SMILES IDX 27 12 28 13 29 14 30 15 31 16 32 17 15 18 14 19 13 20 12 21
REMARK SMILES IDX 11 22 10 23 9 24 8 25 7 26 6 27 5 28 4 29 3 30 2 31 1 32
REMARK H PARENT
REMARK Flexibility Score: inf
ROOT
ATOM      1  C   UNL     1     -12.609   2.719   1.193  1.00  0.00     0.000 C 
ENDROOT
BRANCH   1   2
ATOM      2  C   UNL     1     -12.136   3.773   0.180  1.00  0.00     0.000 C 
BRANCH   2   3
ATOM      3  C   UNL     1     -10.889   4.543   0.650  1.00  0.00     0.000 C 
BRANCH   3   4
ATOM      4  C   UNL     1      -9.583   4.082  -0.033  1.00  0.00     0.000 C 
BRANCH   4   5
ATOM      5  C   UNL     1      -8.773   3.128   0.863  1.00  0.00     0.000 C 
BRANCH   5   6
ATOM      6  C   UNL     1      -7.253   3.248   0.651  1.00  0.00     0.000 C 
BRANCH   6   7
ATOM      7  C   UNL     1      -6.592   4.440   1.381  1.00  0.00     0.000 C 
BRANCH   7   8
ATOM      8  C   UNL     1      -5.114   4.207   1.755  1.00  0.00     0.000 C 
BRANCH   8   9
ATOM      9  C   UNL     1      -4.632   2.747   1.654  1.00  0.00     0.000 C 
BRANCH   9  10
ATOM     10  C   UNL     1      -3.233   2.478   2.244  1.00  0.00     0.000 C 
BRANCH  10  11
ATOM     11  C   UNL     1      -3.219   2.081   3.733  1.00  0.00     0.000 C 
BRANCH  11  12
ATOM     12  C   UNL     1      -2.449   0.784   4.055  1.00  0.00     0.000 C 
BRANCH  12  13
ATOM     13  C   UNL     1      -1.248   0.960   5.000  1.00  0.00     0.006 C 
BRANCH  13  14
ATOM     14  C   UNL     1      -0.083   0.018   4.665  1.00  0.00     0.053 C 
BRANCH  14  15
ATOM     15  C   UNL     1       1.228   0.739   4.727  1.00  0.00     0.041 C 
ATOM     16  O   UNL     1       1.466   1.693   3.940  1.00  0.00    -0.550 OA
ATOM     17  O   UNL     1       2.200   0.341   5.638  1.00  0.00    -0.550 OA
ENDBRANCH  14  15
ENDBRANCH  13  14
ENDBRANCH  12  13
ENDBRANCH  11  12
ENDBRANCH  10  11
ENDBRANCH   9  10
ENDBRANCH   8   9
ENDBRANCH   7   8
ENDBRANCH   6   7
ENDBRANCH   5   6
ENDBRANCH   4   5
ENDBRANCH   3   4
ENDBRANCH   2   3
ENDBRANCH   1   2
BRANCH   1  18
ATOM     18  C   UNL     1     -13.634   1.773   0.557  1.00  0.00     0.000 C 
BRANCH  18  19
ATOM     19  C   UNL     1     -14.584   2.535  -0.381  1.00  0.00     0.000 C 
BRANCH  19  20
ATOM     20  C   UNL     1     -16.021   1.990  -0.346  1.00  0.00     0.000 C 
BRANCH  20  21
ATOM     21  C   UNL     1     -16.145   0.593  -0.980  1.00  0.00     0.000 C 
BRANCH  21  22
ATOM     22  C   UNL     1     -16.906  -0.407  -0.083  1.00  0.00     0.000 C 
BRANCH  22  23
ATOM     23  C   UNL     1     -16.388  -1.855  -0.179  1.00  0.00     0.000 C 
BRANCH  23  24
ATOM     24  C   UNL     1     -16.065  -2.347  -1.603  1.00  0.00    -0.000 C 
BRANCH  24  25
ATOM     25  C   UNL     1     -14.975  -3.432  -1.689  1.00  0.00    -0.000 C 
BRANCH  25  26
ATOM     26  C   UNL     1     -15.029  -4.228  -2.999  1.00  0.00    -0.000 C 
BRANCH  26  27
ATOM     27  C   UNL     1     -13.795  -3.948  -3.868  1.00  0.00    -0.000 C 
BRANCH  27  28
ATOM     28  C   UNL     1     -14.056  -4.162  -5.369  1.00  0.00    -0.000 C 
BRANCH  28  29
ATOM     29  C   UNL     1     -15.431  -3.634  -5.831  1.00  0.00    -0.000 C 
BRANCH  29  30
ATOM     30  C   UNL     1     -15.586  -3.684  -7.362  1.00  0.00    -0.000 C 
BRANCH  30  31
ATOM     31  C   UNL     1     -16.768  -4.559  -7.805  1.00  0.00    -0.003 C 
ATOM     32  C   UNL     1     -16.594  -5.093  -9.227  1.00  0.00     0.004 C 
ENDBRANCH  30  31
ENDBRANCH  29  30
ENDBRANCH  28  29
ENDBRANCH  27  28
ENDBRANCH  26  27
ENDBRANCH  25  26
ENDBRANCH  24  25
ENDBRANCH  23  24
ENDBRANCH  22  23
ENDBRANCH  21  22
ENDBRANCH  20  21
ENDBRANCH  19  20
ENDBRANCH  18  19
ENDBRANCH   1  18
TORSDOF 28
ENDMDL
