MODEL 1
REMARK VINA RESULT:    -0.190      0.000      0.000
REMARK INTER + INTRA:          -2.276
REMARK INTER:                  -0.500
REMARK INTRA:                  -1.776
REMARK UNBOUND:                -1.776
REMARK SMILES CCCCCCCCCCCCCCCCCCCCCCCCCCCCCC(=O)[O-]
REMARK SMILES IDX 16 1 17 2 18 3 19 4 20 5 21 6 22 7 23 8 24 9 25 10 26 11
REMARK SMILES IDX 27 12 28 13 29 14 30 15 31 16 32 17 15 18 14 19 13 20 12 21
REMARK SMILES IDX 11 22 10 23 9 24 8 25 7 26 6 27 5 28 4 29 3 30 2 31 1 32
REMARK H PARENT
REMARK Flexibility Score: inf
ROOT
ATOM      1  C   UNL     1     -19.340  44.840  -6.655  1.00  0.00     0.000 C 
ENDROOT
BRANCH   1   2
ATOM      2  C   UNL     1     -18.301  44.231  -7.612  1.00  0.00     0.000 C 
BRANCH   2   3
ATOM      3  C   UNL     1     -18.948  43.419  -8.746  1.00  0.00     0.000 C 
BRANCH   3   4
ATOM      4  C   UNL     1     -19.879  44.304  -9.589  1.00  0.00     0.000 C 
BRANCH   4   5
ATOM      5  C   UNL     1     -19.235  44.769 -10.905  1.00  0.00     0.000 C 
BRANCH   5   6
ATOM      6  C   UNL     1     -17.756  45.158 -10.734  1.00  0.00     0.000 C 
BRANCH   6   7
ATOM      7  C   UNL     1     -16.793  44.023 -11.122  1.00  0.00     0.000 C 
BRANCH   7   8
ATOM      8  C   UNL     1     -15.517  44.005 -10.259  1.00  0.00     0.000 C 
BRANCH   8   9
ATOM      9  C   UNL     1     -15.078  45.412  -9.823  1.00  0.00     0.000 C 
BRANCH   9  10
ATOM     10  C   UNL     1     -14.759  45.496  -8.323  1.00  0.00     0.000 C 
BRANCH  10  11
ATOM     11  C   UNL     1     -13.875  46.712  -8.020  1.00  0.00     0.000 C 
BRANCH  11  12
ATOM     12  C   UNL     1     -14.250  47.350  -6.677  1.00  0.00     0.000 C 
BRANCH  12  13
ATOM     13  C   UNL     1     -14.597  48.836  -6.853  1.00  0.00     0.006 C 
BRANCH  13  14
ATOM     14  C   UNL     1     -14.015  49.423  -8.145  1.00  0.00     0.053 C 
BRANCH  14  15
ATOM     15  C   UNL     1     -14.516  50.812  -8.399  1.00  0.00     0.041 C 
ATOM     16  O   UNL     1     -15.284  51.371  -7.571  1.00  0.00    -0.550 OA
ATOM     17  O   UNL     1     -14.105  51.504  -9.532  1.00  0.00    -0.550 OA
ENDBRANCH  14  15
ENDBRANCH  13  14
ENDBRANCH  12  13
ENDBRANCH  11  12
ENDBRANCH  10  11
ENDBRANCH   9  10
ENDBRANCH   8   9
ENDBRANCH   7   8
ENDBRANCH   6   7
ENDBRANCH   5   6
ENDBRANCH   4   5
ENDBRANCH   3   4
ENDBRANCH   2   3
ENDBRANCH   1   2
BRANCH   1  18
ATOM     18  C   UNL     1     -19.071  44.476  -5.185  1.00  0.00     0.000 C 
BRANCH  18  19
ATOM     19  C   UNL     1     -17.993  43.388  -5.037  1.00  0.00     0.000 C 
BRANCH  19  20
ATOM     20  C   UNL     1     -17.991  42.728  -3.648  1.00  0.00     0.000 C 
BRANCH  20  21
ATOM     21  C   UNL     1     -19.237  41.851  -3.460  1.00  0.00     0.000 C 
BRANCH  21  22
ATOM     22  C   UNL     1     -20.096  42.272  -2.255  1.00  0.00     0.000 C 
BRANCH  22  23
ATOM     23  C   UNL     1     -20.441  41.115  -1.294  1.00  0.00     0.000 C 
BRANCH  23  24
ATOM     24  C   UNL     1     -20.958  41.607   0.068  1.00  0.00    -0.000 C 
BRANCH  24  25
ATOM     25  C   UNL     1     -21.831  40.565   0.789  1.00  0.00    -0.000 C 
BRANCH  25  26
ATOM     26  C   UNL     1     -21.214  39.150   0.823  1.00  0.00    -0.000 C 
BRANCH  26  27
ATOM     27  C   UNL     1     -22.289  38.054   0.934  1.00  0.00    -0.000 C 
BRANCH  27  28
ATOM     28  C   UNL     1     -21.703  36.680   1.290  1.00  0.00    -0.000 C 
BRANCH  28  29
ATOM     29  C   UNL     1     -20.190  36.595   1.020  1.00  0.00    -0.000 C 
BRANCH  29  30
ATOM     30  C   UNL     1     -19.869  35.935  -0.330  1.00  0.00    -0.000 C 
BRANCH  30  31
ATOM     31  C   UNL     1     -20.502  34.543  -0.471  1.00  0.00    -0.003 C 
ATOM     32  C   UNL     1     -19.853  33.756  -1.605  1.00  0.00     0.004 C 
ENDBRANCH  30  31
ENDBRANCH  29  30
ENDBRANCH  28  29
ENDBRANCH  27  28
ENDBRANCH  26  27
ENDBRANCH  25  26
ENDBRANCH  24  25
ENDBRANCH  23  24
ENDBRANCH  22  23
ENDBRANCH  21  22
ENDBRANCH  20  21
ENDBRANCH  19  20
ENDBRANCH  18  19
ENDBRANCH   1  18
TORSDOF 28
ENDMDL
MODEL 2
REMARK VINA RESULT:    -0.083      3.772      5.842
REMARK INTER + INTRA:          -1.996
REMARK INTER:                  -0.783
REMARK INTRA:                  -1.212
REMARK UNBOUND:                -1.776
REMARK SMILES CCCCCCCCCCCCCCCCCCCCCCCCCCCCCC(=O)[O-]
REMARK SMILES IDX 16 1 17 2 18 3 19 4 20 5 21 6 22 7 23 8 24 9 25 10 26 11
REMARK SMILES IDX 27 12 28 13 29 14 30 15 31 16 32 17 15 18 14 19 13 20 12 21
REMARK SMILES IDX 11 22 10 23 9 24 8 25 7 26 6 27 5 28 4 29 3 30 2 31 1 32
REMARK H PARENT
REMARK Flexibility Score: inf
ROOT
ATOM      1  C   UNL     1     -19.857  44.274  -8.433  1.00  0.00     0.000 C 
ENDROOT
BRANCH   1   2
ATOM      2  C   UNL     1     -18.445  43.704  -8.650  1.00  0.00     0.000 C 
BRANCH   2   3
ATOM      3  C   UNL     1     -18.202  43.265 -10.103  1.00  0.00     0.000 C 
BRANCH   3   4
ATOM      4  C   UNL     1     -18.011  44.485 -11.018  1.00  0.00     0.000 C 
BRANCH   4   5
ATOM      5  C   UNL     1     -16.577  45.039 -10.986  1.00  0.00     0.000 C 
BRANCH   5   6
ATOM      6  C   UNL     1     -15.513  43.929 -10.998  1.00  0.00     0.000 C 
BRANCH   6   7
ATOM      7  C   UNL     1     -14.416  44.143  -9.942  1.00  0.00     0.000 C 
BRANCH   7   8
ATOM      8  C   UNL     1     -14.163  45.632  -9.640  1.00  0.00     0.000 C 
BRANCH   8   9
ATOM      9  C   UNL     1     -14.125  45.932  -8.133  1.00  0.00     0.000 C 
BRANCH   9  10
ATOM     10  C   UNL     1     -13.971  47.430  -7.829  1.00  0.00     0.000 C 
BRANCH  10  11
ATOM     11  C   UNL     1     -14.919  48.263  -8.700  1.00  0.00     0.000 C 
BRANCH  11  12
ATOM     12  C   UNL     1     -14.183  48.867  -9.901  1.00  0.00     0.000 C 
BRANCH  12  13
ATOM     13  C   UNL     1     -14.576  50.339 -10.104  1.00  0.00     0.006 C 
BRANCH  13  14
ATOM     14  C   UNL     1     -13.877  51.272  -9.107  1.00  0.00     0.053 C 
BRANCH  14  15
ATOM     15  C   UNL     1     -14.563  51.275  -7.775  1.00  0.00     0.041 C 
ATOM     16  O   UNL     1     -15.736  51.720  -7.667  1.00  0.00    -0.550 OA
ATOM     17  O   UNL     1     -13.920  50.751  -6.660  1.00  0.00    -0.550 OA
ENDBRANCH  14  15
ENDBRANCH  13  14
ENDBRANCH  12  13
ENDBRANCH  11  12
ENDBRANCH  10  11
ENDBRANCH   9  10
ENDBRANCH   8   9
ENDBRANCH   7   8
ENDBRANCH   6   7
ENDBRANCH   5   6
ENDBRANCH   4   5
ENDBRANCH   3   4
ENDBRANCH   2   3
ENDBRANCH   1   2
BRANCH   1  18
ATOM     18  C   UNL     1     -19.918  45.262  -7.256  1.00  0.00     0.000 C 
BRANCH  18  19
ATOM     19  C   UNL     1     -19.049  44.816  -6.068  1.00  0.00     0.000 C 
BRANCH  19  20
ATOM     20  C   UNL     1     -19.831  44.740  -4.746  1.00  0.00     0.000 C 
BRANCH  20  21
ATOM     21  C   UNL     1     -19.054  43.929  -3.700  1.00  0.00     0.000 C 
BRANCH  21  22
ATOM     22  C   UNL     1     -19.622  42.514  -3.488  1.00  0.00     0.000 C 
BRANCH  22  23
ATOM     23  C   UNL     1     -18.980  41.438  -4.387  1.00  0.00     0.000 C 
BRANCH  23  24
ATOM     24  C   UNL     1     -17.504  41.730  -4.704  1.00  0.00    -0.000 C 
BRANCH  24  25
ATOM     25  C   UNL     1     -17.325  42.672  -5.907  1.00  0.00    -0.000 C 
BRANCH  25  26
ATOM     26  C   UNL     1     -15.915  43.293  -6.009  1.00  0.00    -0.000 C 
BRANCH  26  27
ATOM     27  C   UNL     1     -15.150  43.212  -4.675  1.00  0.00    -0.000 C 
BRANCH  27  28
ATOM     28  C   UNL     1     -15.327  44.470  -3.812  1.00  0.00    -0.000 C 
BRANCH  28  29
ATOM     29  C   UNL     1     -14.162  44.683  -2.830  1.00  0.00    -0.000 C 
BRANCH  29  30
ATOM     30  C   UNL     1     -14.500  44.215  -1.405  1.00  0.00    -0.000 C 
BRANCH  30  31
ATOM     31  C   UNL     1     -13.933  45.151  -0.328  1.00  0.00    -0.003 C 
ATOM     32  C   UNL     1     -14.794  45.125   0.931  1.00  0.00     0.004 C 
ENDBRANCH  30  31
ENDBRANCH  29  30
ENDBRANCH  28  29
ENDBRANCH  27  28
ENDBRANCH  26  27
ENDBRANCH  25  26
ENDBRANCH  24  25
ENDBRANCH  23  24
ENDBRANCH  22  23
ENDBRANCH  21  22
ENDBRANCH  20  21
ENDBRANCH  19  20
ENDBRANCH  18  19
ENDBRANCH   1  18
TORSDOF 28
ENDMDL
MODEL 3
REMARK VINA RESULT:     0.227      5.206     13.371
REMARK INTER + INTRA:          -1.178
REMARK INTER:                   0.892
REMARK INTRA:                  -2.069
REMARK UNBOUND:                -1.776
REMARK SMILES CCCCCCCCCCCCCCCCCCCCCCCCCCCCCC(=O)[O-]
REMARK SMILES IDX 16 1 17 2 18 3 19 4 20 5 21 6 22 7 23 8 24 9 25 10 26 11
REMARK SMILES IDX 27 12 28 13 29 14 30 15 31 16 32 17 15 18 14 19 13 20 12 21
REMARK SMILES IDX 11 22 10 23 9 24 8 25 7 26 6 27 5 28 4 29 3 30 2 31 1 32
REMARK H PARENT
REMARK Flexibility Score: inf
ROOT
ATOM      1  C   UNL     1     -17.772  43.470  -5.737  1.00  0.00     0.000 C 
ENDROOT
BRANCH   1   2
ATOM      2  C   UNL     1     -17.920  41.951  -5.545  1.00  0.00     0.000 C 
BRANCH   2   3
ATOM      3  C   UNL     1     -18.484  41.582  -4.163  1.00  0.00     0.000 C 
BRANCH   3   4
ATOM      4  C   UNL     1     -18.668  42.838  -3.297  1.00  0.00     0.000 C 
BRANCH   4   5
ATOM      5  C   UNL     1     -19.919  42.772  -2.405  1.00  0.00     0.000 C 
BRANCH   5   6
ATOM      6  C   UNL     1     -20.036  41.438  -1.648  1.00  0.00     0.000 C 
BRANCH   6   7
ATOM      7  C   UNL     1     -21.044  41.496  -0.488  1.00  0.00     0.000 C 
BRANCH   7   8
ATOM      8  C   UNL     1     -21.000  40.240   0.402  1.00  0.00     0.000 C 
BRANCH   8   9
ATOM      9  C   UNL     1     -22.314  39.444   0.369  1.00  0.00     0.000 C 
BRANCH   9  10
ATOM     10  C   UNL     1     -22.127  37.971   0.761  1.00  0.00     0.000 C 
BRANCH  10  11
ATOM     11  C   UNL     1     -20.685  37.518   0.505  1.00  0.00     0.000 C 
BRANCH  11  12
ATOM     12  C   UNL     1     -20.273  36.404   1.475  1.00  0.00     0.000 C 
BRANCH  12  13
ATOM     13  C   UNL     1     -20.626  35.022   0.906  1.00  0.00     0.006 C 
BRANCH  13  14
ATOM     14  C   UNL     1     -20.537  34.981  -0.625  1.00  0.00     0.053 C 
BRANCH  14  15
ATOM     15  C   UNL     1     -20.493  33.575  -1.141  1.00  0.00     0.041 C 
ATOM     16  O   UNL     1     -21.560  32.966  -1.418  1.00  0.00    -0.550 OA
ATOM     17  O   UNL     1     -19.270  32.950  -1.354  1.00  0.00    -0.550 OA
ENDBRANCH  14  15
ENDBRANCH  13  14
ENDBRANCH  12  13
ENDBRANCH  11  12
ENDBRANCH  10  11
ENDBRANCH   9  10
ENDBRANCH   8   9
ENDBRANCH   7   8
ENDBRANCH   6   7
ENDBRANCH   5   6
ENDBRANCH   4   5
ENDBRANCH   3   4
ENDBRANCH   2   3
ENDBRANCH   1   2
BRANCH   1  18
ATOM     18  C   UNL     1     -17.851  43.887  -7.216  1.00  0.00     0.000 C 
BRANCH  18  19
ATOM     19  C   UNL     1     -19.152  44.638  -7.545  1.00  0.00     0.000 C 
BRANCH  19  20
ATOM     20  C   UNL     1     -19.472  44.656  -9.049  1.00  0.00     0.000 C 
BRANCH  20  21
ATOM     21  C   UNL     1     -19.363  43.245  -9.645  1.00  0.00     0.000 C 
BRANCH  21  22
ATOM     22  C   UNL     1     -18.625  43.214 -10.994  1.00  0.00     0.000 C 
BRANCH  22  23
ATOM     23  C   UNL     1     -17.215  42.592 -10.925  1.00  0.00     0.000 C 
BRANCH  23  24
ATOM     24  C   UNL     1     -16.097  43.630 -11.116  1.00  0.00    -0.000 C 
BRANCH  24  25
ATOM     25  C   UNL     1     -15.737  44.368  -9.815  1.00  0.00    -0.000 C 
BRANCH  25  26
ATOM     26  C   UNL     1     -14.310  44.958  -9.807  1.00  0.00    -0.000 C 
BRANCH  26  27
ATOM     27  C   UNL     1     -14.087  45.914  -8.621  1.00  0.00    -0.000 C 
BRANCH  27  28
ATOM     28  C   UNL     1     -15.047  47.113  -8.636  1.00  0.00    -0.000 C 
BRANCH  28  29
ATOM     29  C   UNL     1     -14.898  47.973  -9.904  1.00  0.00    -0.000 C 
BRANCH  29  30
ATOM     30  C   UNL     1     -14.718  49.466  -9.584  1.00  0.00    -0.000 C 
BRANCH  30  31
ATOM     31  C   UNL     1     -14.759  49.754  -8.076  1.00  0.00    -0.003 C 
ATOM     32  C   UNL     1     -15.072  51.223  -7.806  1.00  0.00     0.004 C 
ENDBRANCH  30  31
ENDBRANCH  29  30
ENDBRANCH  28  29
ENDBRANCH  27  28
ENDBRANCH  26  27
ENDBRANCH  25  26
ENDBRANCH  24  25
ENDBRANCH  23  24
ENDBRANCH  22  23
ENDBRANCH  21  22
ENDBRANCH  20  21
ENDBRANCH  19  20
ENDBRANCH  18  19
ENDBRANCH   1  18
TORSDOF 28
ENDMDL
MODEL 4
REMARK VINA RESULT:     0.771      4.907     13.040
REMARK INTER + INTRA:           0.258
REMARK INTER:                   1.209
REMARK INTRA:                  -0.951
REMARK UNBOUND:                -1.776
REMARK SMILES CCCCCCCCCCCCCCCCCCCCCCCCCCCCCC(=O)[O-]
REMARK SMILES IDX 16 1 17 2 18 3 19 4 20 5 21 6 22 7 23 8 24 9 25 10 26 11
REMARK SMILES IDX 27 12 28 13 29 14 30 15 31 16 32 17 15 18 14 19 13 20 12 21
REMARK SMILES IDX 11 22 10 23 9 24 8 25 7 26 6 27 5 28 4 29 3 30 2 31 1 32
REMARK H PARENT
REMARK Flexibility Score: inf
ROOT
ATOM      1  C   UNL     1     -19.536  44.580  -8.080  1.00  0.00     0.000 C 
ENDROOT
BRANCH   1   2
ATOM      2  C   UNL     1     -18.196  44.252  -7.400  1.00  0.00     0.000 C 
BRANCH   2   3
ATOM      3  C   UNL     1     -18.375  43.709  -5.973  1.00  0.00     0.000 C 
BRANCH   3   4
ATOM      4  C   UNL     1     -17.590  42.402  -5.784  1.00  0.00     0.000 C 
BRANCH   4   5
ATOM      5  C   UNL     1     -17.613  41.894  -4.333  1.00  0.00     0.000 C 
BRANCH   5   6
ATOM      6  C   UNL     1     -19.034  41.569  -3.843  1.00  0.00     0.000 C 
BRANCH   6   7
ATOM      7  C   UNL     1     -19.489  42.478  -2.688  1.00  0.00     0.000 C 
BRANCH   7   8
ATOM      8  C   UNL     1     -19.836  41.689  -1.412  1.00  0.00     0.000 C 
BRANCH   8   9
ATOM      9  C   UNL     1     -21.252  41.993  -0.895  1.00  0.00     0.000 C 
BRANCH   9  10
ATOM     10  C   UNL     1     -21.477  41.501   0.543  1.00  0.00     0.000 C 
BRANCH  10  11
ATOM     11  C   UNL     1     -21.133  40.012   0.670  1.00  0.00     0.000 C 
BRANCH  11  12
ATOM     12  C   UNL     1     -22.401  39.153   0.735  1.00  0.00     0.000 C 
BRANCH  12  13
ATOM     13  C   UNL     1     -22.071  37.719   1.177  1.00  0.00     0.006 C 
BRANCH  13  14
ATOM     14  C   UNL     1     -20.575  37.402   1.062  1.00  0.00     0.053 C 
BRANCH  14  15
ATOM     15  C   UNL     1     -20.327  35.930   0.937  1.00  0.00     0.041 C 
ATOM     16  O   UNL     1     -20.185  35.221   1.968  1.00  0.00    -0.550 OA
ATOM     17  O   UNL     1     -20.291  35.334  -0.318  1.00  0.00    -0.550 OA
ENDBRANCH  14  15
ENDBRANCH  13  14
ENDBRANCH  12  13
ENDBRANCH  11  12
ENDBRANCH  10  11
ENDBRANCH   9  10
ENDBRANCH   8   9
ENDBRANCH   7   8
ENDBRANCH   6   7
ENDBRANCH   5   6
ENDBRANCH   4   5
ENDBRANCH   3   4
ENDBRANCH   2   3
ENDBRANCH   1   2
BRANCH   1  18
ATOM     18  C   UNL     1     -19.684  43.898  -9.451  1.00  0.00     0.000 C 
BRANCH  18  19
ATOM     19  C   UNL     1     -18.608  42.825  -9.692  1.00  0.00     0.000 C 
BRANCH  19  20
ATOM     20  C   UNL     1     -17.985  42.902 -11.096  1.00  0.00     0.000 C 
BRANCH  20  21
ATOM     21  C   UNL     1     -16.467  42.688 -11.030  1.00  0.00     0.000 C 
BRANCH  21  22
ATOM     22  C   UNL     1     -15.668  44.002 -11.089  1.00  0.00     0.000 C 
BRANCH  22  23
ATOM     23  C   UNL     1     -14.818  44.277  -9.831  1.00  0.00     0.000 C 
BRANCH  23  24
ATOM     24  C   UNL     1     -15.664  44.371  -8.550  1.00  0.00    -0.000 C 
BRANCH  24  25
ATOM     25  C   UNL     1     -15.413  45.668  -7.761  1.00  0.00    -0.000 C 
BRANCH  25  26
ATOM     26  C   UNL     1     -14.100  46.386  -8.142  1.00  0.00    -0.000 C 
BRANCH  26  27
ATOM     27  C   UNL     1     -14.249  47.918  -8.107  1.00  0.00    -0.000 C 
BRANCH  27  28
ATOM     28  C   UNL     1     -13.875  48.582  -9.440  1.00  0.00    -0.000 C 
BRANCH  28  29
ATOM     29  C   UNL     1     -14.944  49.577  -9.926  1.00  0.00    -0.000 C 
BRANCH  29  30
ATOM     30  C   UNL     1     -14.333  50.860 -10.510  1.00  0.00    -0.000 C 
BRANCH  30  31
ATOM     31  C   UNL     1     -14.297  52.010  -9.493  1.00  0.00    -0.003 C 
ATOM     32  C   UNL     1     -14.177  51.480  -8.067  1.00  0.00     0.004 C 
ENDBRANCH  30  31
ENDBRANCH  29  30
ENDBRANCH  28  29
ENDBRANCH  27  28
ENDBRANCH  26  27
ENDBRANCH  25  26
ENDBRANCH  24  25
ENDBRANCH  23  24
ENDBRANCH  22  23
ENDBRANCH  21  22
ENDBRANCH  20  21
ENDBRANCH  19  20
ENDBRANCH  18  19
ENDBRANCH   1  18
TORSDOF 28
ENDMDL
MODEL 5
REMARK VINA RESULT:     0.820      2.724      3.961
REMARK INTER + INTRA:           0.387
REMARK INTER:                   1.830
REMARK INTRA:                  -1.443
REMARK UNBOUND:                -1.776
REMARK SMILES CCCCCCCCCCCCCCCCCCCCCCCCCCCCCC(=O)[O-]
REMARK SMILES IDX 16 1 17 2 18 3 19 4 20 5 21 6 22 7 23 8 24 9 25 10 26 11
REMARK SMILES IDX 27 12 28 13 29 14 30 15 31 16 32 17 15 18 14 19 13 20 12 21
REMARK SMILES IDX 11 22 10 23 9 24 8 25 7 26 6 27 5 28 4 29 3 30 2 31 1 32
REMARK H PARENT
REMARK Flexibility Score: inf
ROOT
ATOM      1  C   UNL     1     -19.874  44.064  -8.941  1.00  0.00     0.000 C 
ENDROOT
BRANCH   1   2
ATOM      2  C   UNL     1     -18.506  43.372  -9.071  1.00  0.00     0.000 C 
BRANCH   2   3
ATOM      3  C   UNL     1     -17.751  43.791 -10.343  1.00  0.00     0.000 C 
BRANCH   3   4
ATOM      4  C   UNL     1     -18.074  45.247 -10.715  1.00  0.00     0.000 C 
BRANCH   4   5
ATOM      5  C   UNL     1     -17.085  46.254 -10.105  1.00  0.00     0.000 C 
BRANCH   5   6
ATOM      6  C   UNL     1     -16.049  46.758 -11.124  1.00  0.00     0.000 C 
BRANCH   6   7
ATOM      7  C   UNL     1     -14.726  45.977 -11.064  1.00  0.00     0.000 C 
BRANCH   7   8
ATOM      8  C   UNL     1     -13.894  46.311  -9.811  1.00  0.00     0.000 C 
BRANCH   8   9
ATOM      9  C   UNL     1     -13.946  47.803  -9.447  1.00  0.00     0.000 C 
BRANCH   9  10
ATOM     10  C   UNL     1     -14.407  48.046  -8.002  1.00  0.00     0.000 C 
BRANCH  10  11
ATOM     11  C   UNL     1     -14.090  46.834  -7.118  1.00  0.00     0.000 C 
BRANCH  11  12
ATOM     12  C   UNL     1     -15.001  45.648  -7.453  1.00  0.00     0.000 C 
BRANCH  12  13
ATOM     13  C   UNL     1     -15.514  44.970  -6.174  1.00  0.00     0.006 C 
BRANCH  13  14
ATOM     14  C   UNL     1     -15.570  43.442  -6.306  1.00  0.00     0.053 C 
BRANCH  14  15
ATOM     15  C   UNL     1     -16.193  42.804  -5.102  1.00  0.00     0.041 C 
ATOM     16  O   UNL     1     -16.788  41.699  -5.207  1.00  0.00    -0.550 OA
ATOM     17  O   UNL     1     -16.081  43.410  -3.856  1.00  0.00    -0.550 OA
ENDBRANCH  14  15
ENDBRANCH  13  14
ENDBRANCH  12  13
ENDBRANCH  11  12
ENDBRANCH  10  11
ENDBRANCH   9  10
ENDBRANCH   8   9
ENDBRANCH   7   8
ENDBRANCH   6   7
ENDBRANCH   5   6
ENDBRANCH   4   5
ENDBRANCH   3   4
ENDBRANCH   2   3
ENDBRANCH   1   2
BRANCH   1  18
ATOM     18  C   UNL     1     -19.957  44.977  -7.705  1.00  0.00     0.000 C 
BRANCH  18  19
ATOM     19  C   UNL     1     -19.132  44.441  -6.523  1.00  0.00     0.000 C 
BRANCH  19  20
ATOM     20  C   UNL     1     -19.683  44.882  -5.157  1.00  0.00     0.000 C 
BRANCH  20  21
ATOM     21  C   UNL     1     -18.799  44.355  -4.017  1.00  0.00     0.000 C 
BRANCH  21  22
ATOM     22  C   UNL     1     -19.585  43.561  -2.960  1.00  0.00     0.000 C 
BRANCH  22  23
ATOM     23  C   UNL     1     -19.356  42.036  -3.020  1.00  0.00     0.000 C 
BRANCH  23  24
ATOM     24  C   UNL     1     -20.245  41.262  -2.033  1.00  0.00    -0.000 C 
BRANCH  24  25
ATOM     25  C   UNL     1     -20.510  42.037  -0.731  1.00  0.00    -0.000 C 
BRANCH  25  26
ATOM     26  C   UNL     1     -21.369  41.262   0.292  1.00  0.00    -0.000 C 
BRANCH  26  27
ATOM     27  C   UNL     1     -21.214  39.738   0.140  1.00  0.00    -0.000 C 
BRANCH  27  28
ATOM     28  C   UNL     1     -22.425  38.962   0.678  1.00  0.00    -0.000 C 
BRANCH  28  29
ATOM     29  C   UNL     1     -22.051  37.555   1.178  1.00  0.00    -0.000 C 
BRANCH  29  30
ATOM     30  C   UNL     1     -20.588  37.194   0.881  1.00  0.00    -0.000 C 
BRANCH  30  31
ATOM     31  C   UNL     1     -20.261  35.732   1.218  1.00  0.00    -0.003 C 
ATOM     32  C   UNL     1     -19.788  35.593   2.663  1.00  0.00     0.004 C 
ENDBRANCH  30  31
ENDBRANCH  29  30
ENDBRANCH  28  29
ENDBRANCH  27  28
ENDBRANCH  26  27
ENDBRANCH  25  26
ENDBRANCH  24  25
ENDBRANCH  23  24
ENDBRANCH  22  23
ENDBRANCH  21  22
ENDBRANCH  20  21
ENDBRANCH  19  20
ENDBRANCH  18  19
ENDBRANCH   1  18
TORSDOF 28
ENDMDL
MODEL 6
REMARK VINA RESULT:     1.024      2.219      2.701
REMARK INTER + INTRA:           0.924
REMARK INTER:                   3.108
REMARK INTRA:                  -2.185
REMARK UNBOUND:                -1.776
REMARK SMILES CCCCCCCCCCCCCCCCCCCCCCCCCCCCCC(=O)[O-]
REMARK SMILES IDX 16 1 17 2 18 3 19 4 20 5 21 6 22 7 23 8 24 9 25 10 26 11
REMARK SMILES IDX 27 12 28 13 29 14 30 15 31 16 32 17 15 18 14 19 13 20 12 21
REMARK SMILES IDX 11 22 10 23 9 24 8 25 7 26 6 27 5 28 4 29 3 30 2 31 1 32
REMARK H PARENT
REMARK Flexibility Score: inf
ROOT
ATOM      1  C   UNL     1     -19.663  45.249  -6.259  1.00  0.00     0.000 C 
ENDROOT
BRANCH   1   2
ATOM      2  C   UNL     1     -18.631  44.956  -7.361  1.00  0.00     0.000 C 
BRANCH   2   3
ATOM      3  C   UNL     1     -19.138  43.928  -8.386  1.00  0.00     0.000 C 
BRANCH   3   4
ATOM      4  C   UNL     1     -19.940  44.618  -9.500  1.00  0.00     0.000 C 
BRANCH   4   5
ATOM      5  C   UNL     1     -19.088  44.943 -10.739  1.00  0.00     0.000 C 
BRANCH   5   6
ATOM      6  C   UNL     1     -17.854  45.797 -10.401  1.00  0.00     0.000 C 
BRANCH   6   7
ATOM      7  C   UNL     1     -16.583  45.320 -11.124  1.00  0.00     0.000 C 
BRANCH   7   8
ATOM      8  C   UNL     1     -15.424  46.330 -11.017  1.00  0.00     0.000 C 
BRANCH   8   9
ATOM      9  C   UNL     1     -15.898  47.788 -11.125  1.00  0.00     0.000 C 
BRANCH   9  10
ATOM     10  C   UNL     1     -15.199  48.715 -10.120  1.00  0.00     0.000 C 
BRANCH  10  11
ATOM     11  C   UNL     1     -15.469  48.261  -8.680  1.00  0.00     0.000 C 
BRANCH  11  12
ATOM     12  C   UNL     1     -14.159  48.030  -7.917  1.00  0.00     0.000 C 
BRANCH  12  13
ATOM     13  C   UNL     1     -14.185  46.683  -7.178  1.00  0.00     0.006 C 
BRANCH  13  14
ATOM     14  C   UNL     1     -15.386  45.818  -7.582  1.00  0.00     0.053 C 
BRANCH  14  15
ATOM     15  C   UNL     1     -15.035  44.362  -7.618  1.00  0.00     0.041 C 
ATOM     16  O   UNL     1     -15.407  43.597  -6.690  1.00  0.00    -0.550 OA
ATOM     17  O   UNL     1     -14.329  43.843  -8.697  1.00  0.00    -0.550 OA
ENDBRANCH  14  15
ENDBRANCH  13  14
ENDBRANCH  12  13
ENDBRANCH  11  12
ENDBRANCH  10  11
ENDBRANCH   9  10
ENDBRANCH   8   9
ENDBRANCH   7   8
ENDBRANCH   6   7
ENDBRANCH   5   6
ENDBRANCH   4   5
ENDBRANCH   3   4
ENDBRANCH   2   3
ENDBRANCH   1   2
BRANCH   1  18
ATOM     18  C   UNL     1     -19.314  44.561  -4.928  1.00  0.00     0.000 C 
BRANCH  18  19
ATOM     19  C   UNL     1     -18.376  43.357  -5.117  1.00  0.00     0.000 C 
BRANCH  19  20
ATOM     20  C   UNL     1     -18.820  42.117  -4.325  1.00  0.00     0.000 C 
BRANCH  20  21
ATOM     21  C   UNL     1     -20.018  42.447  -3.423  1.00  0.00     0.000 C 
BRANCH  21  22
ATOM     22  C   UNL     1     -19.692  42.345  -1.923  1.00  0.00     0.000 C 
BRANCH  22  23
ATOM     23  C   UNL     1     -20.292  41.102  -1.233  1.00  0.00     0.000 C 
BRANCH  23  24
ATOM     24  C   UNL     1     -20.612  41.342   0.252  1.00  0.00    -0.000 C 
BRANCH  24  25
ATOM     25  C   UNL     1     -21.917  40.662   0.701  1.00  0.00    -0.000 C 
BRANCH  25  26
ATOM     26  C   UNL     1     -22.055  39.200   0.224  1.00  0.00    -0.000 C 
BRANCH  26  27
ATOM     27  C   UNL     1     -21.153  38.244   1.026  1.00  0.00    -0.000 C 
BRANCH  27  28
ATOM     28  C   UNL     1     -21.103  36.831   0.426  1.00  0.00    -0.000 C 
BRANCH  28  29
ATOM     29  C   UNL     1     -20.228  35.869   1.249  1.00  0.00    -0.000 C 
BRANCH  29  30
ATOM     30  C   UNL     1     -20.129  34.474   0.614  1.00  0.00    -0.000 C 
BRANCH  30  31
ATOM     31  C   UNL     1     -20.373  34.498  -0.902  1.00  0.00    -0.003 C 
ATOM     32  C   UNL     1     -19.908  33.199  -1.554  1.00  0.00     0.004 C 
ENDBRANCH  30  31
ENDBRANCH  29  30
ENDBRANCH  28  29
ENDBRANCH  27  28
ENDBRANCH  26  27
ENDBRANCH  25  26
ENDBRANCH  24  25
ENDBRANCH  23  24
ENDBRANCH  22  23
ENDBRANCH  21  22
ENDBRANCH  20  21
ENDBRANCH  19  20
ENDBRANCH  18  19
ENDBRANCH   1  18
TORSDOF 28
ENDMDL
MODEL 7
REMARK VINA RESULT:     1.206      5.087     13.184
REMARK INTER + INTRA:           1.403
REMARK INTER:                   3.117
REMARK INTRA:                  -1.714
REMARK UNBOUND:                -1.776
REMARK SMILES CCCCCCCCCCCCCCCCCCCCCCCCCCCCCC(=O)[O-]
REMARK SMILES IDX 16 1 17 2 18 3 19 4 20 5 21 6 22 7 23 8 24 9 25 10 26 11
REMARK SMILES IDX 27 12 28 13 29 14 30 15 31 16 32 17 15 18 14 19 13 20 12 21
REMARK SMILES IDX 11 22 10 23 9 24 8 25 7 26 6 27 5 28 4 29 3 30 2 31 1 32
REMARK H PARENT
REMARK Flexibility Score: inf
ROOT
ATOM      1  C   UNL     1     -19.211  44.158  -8.450  1.00  0.00     0.000 C 
ENDROOT
BRANCH   1   2
ATOM      2  C   UNL     1     -18.150  44.375  -7.358  1.00  0.00     0.000 C 
BRANCH   2   3
ATOM      3  C   UNL     1     -18.393  43.504  -6.115  1.00  0.00     0.000 C 
BRANCH   3   4
ATOM      4  C   UNL     1     -17.084  43.276  -5.344  1.00  0.00     0.000 C 
BRANCH   4   5
ATOM      5  C   UNL     1     -17.304  43.089  -3.833  1.00  0.00     0.000 C 
BRANCH   5   6
ATOM      6  C   UNL     1     -18.520  42.203  -3.517  1.00  0.00     0.000 C 
BRANCH   6   7
ATOM      7  C   UNL     1     -19.483  42.850  -2.508  1.00  0.00     0.000 C 
BRANCH   7   8
ATOM      8  C   UNL     1     -20.472  41.839  -1.897  1.00  0.00     0.000 C 
BRANCH   8   9
ATOM      9  C   UNL     1     -21.158  42.374  -0.629  1.00  0.00     0.000 C 
BRANCH   9  10
ATOM     10  C   UNL     1     -21.094  41.384   0.543  1.00  0.00     0.000 C 
BRANCH  10  11
ATOM     11  C   UNL     1     -20.925  39.947   0.035  1.00  0.00     0.000 C 
BRANCH  11  12
ATOM     12  C   UNL     1     -22.257  39.190   0.057  1.00  0.00     0.000 C 
BRANCH  12  13
ATOM     13  C   UNL     1     -22.085  37.790   0.668  1.00  0.00     0.006 C 
BRANCH  13  14
ATOM     14  C   UNL     1     -20.612  37.438   0.912  1.00  0.00     0.053 C 
BRANCH  14  15
ATOM     15  C   UNL     1     -20.446  36.014   1.347  1.00  0.00     0.041 C 
ATOM     16  O   UNL     1     -20.463  35.085   0.498  1.00  0.00    -0.550 OA
ATOM     17  O   UNL     1     -20.235  35.717   2.688  1.00  0.00    -0.550 OA
ENDBRANCH  14  15
ENDBRANCH  13  14
ENDBRANCH  12  13
ENDBRANCH  11  12
ENDBRANCH  10  11
ENDBRANCH   9  10
ENDBRANCH   8   9
ENDBRANCH   7   8
ENDBRANCH   6   7
ENDBRANCH   5   6
ENDBRANCH   4   5
ENDBRANCH   3   4
ENDBRANCH   2   3
ENDBRANCH   1   2
BRANCH   1  18
ATOM     18  C   UNL     1     -18.724  44.596  -9.841  1.00  0.00     0.000 C 
BRANCH  18  19
ATOM     19  C   UNL     1     -17.379  45.341  -9.785  1.00  0.00     0.000 C 
BRANCH  19  20
ATOM     20  C   UNL     1     -17.164  46.286 -10.978  1.00  0.00     0.000 C 
BRANCH  20  21
ATOM     21  C   UNL     1     -15.680  46.651 -11.124  1.00  0.00     0.000 C 
BRANCH  21  22
ATOM     22  C   UNL     1     -15.271  47.870 -10.279  1.00  0.00     0.000 C 
BRANCH  22  23
ATOM     23  C   UNL     1     -13.958  47.677  -9.492  1.00  0.00     0.000 C 
BRANCH  23  24
ATOM     24  C   UNL     1     -14.104  46.684  -8.327  1.00  0.00    -0.000 C 
BRANCH  24  25
ATOM     25  C   UNL     1     -14.680  47.333  -7.056  1.00  0.00    -0.000 C 
BRANCH  25  26
ATOM     26  C   UNL     1     -13.902  48.581  -6.585  1.00  0.00    -0.000 C 
BRANCH  26  27
ATOM     27  C   UNL     1     -14.753  49.481  -5.670  1.00  0.00    -0.000 C 
BRANCH  27  28
ATOM     28  C   UNL     1     -14.072  50.820  -5.355  1.00  0.00    -0.000 C 
BRANCH  28  29
ATOM     29  C   UNL     1     -13.877  51.694  -6.607  1.00  0.00    -0.000 C 
BRANCH  29  30
ATOM     30  C   UNL     1     -14.940  51.425  -7.684  1.00  0.00    -0.000 C 
BRANCH  30  31
ATOM     31  C   UNL     1     -14.326  50.973  -9.017  1.00  0.00    -0.003 C 
ATOM     32  C   UNL     1     -14.438  52.069 -10.073  1.00  0.00     0.004 C 
ENDBRANCH  30  31
ENDBRANCH  29  30
ENDBRANCH  28  29
ENDBRANCH  27  28
ENDBRANCH  26  27
ENDBRANCH  25  26
ENDBRANCH  24  25
ENDBRANCH  23  24
ENDBRANCH  22  23
ENDBRANCH  21  22
ENDBRANCH  20  21
ENDBRANCH  19  20
ENDBRANCH  18  19
ENDBRANCH   1  18
TORSDOF 28
ENDMDL
MODEL 8
REMARK VINA RESULT:     1.288      5.436     12.756
REMARK INTER + INTRA:           1.621
REMARK INTER:                   3.830
REMARK INTRA:                  -2.209
REMARK UNBOUND:                -1.776
REMARK SMILES CCCCCCCCCCCCCCCCCCCCCCCCCCCCCC(=O)[O-]
REMARK SMILES IDX 16 1 17 2 18 3 19 4 20 5 21 6 22 7 23 8 24 9 25 10 26 11
REMARK SMILES IDX 27 12 28 13 29 14 30 15 31 16 32 17 15 18 14 19 13 20 12 21
REMARK SMILES IDX 11 22 10 23 9 24 8 25 7 26 6 27 5 28 4 29 3 30 2 31 1 32
REMARK H PARENT
REMARK Flexibility Score: inf
ROOT
ATOM      1  C   UNL     1     -18.336  42.545  -4.962  1.00  0.00     0.000 C 
ENDROOT
BRANCH   1   2
ATOM      2  C   UNL     1     -18.978  43.827  -4.405  1.00  0.00     0.000 C 
BRANCH   2   3
ATOM      3  C   UNL     1     -19.648  43.606  -3.039  1.00  0.00     0.000 C 
BRANCH   3   4
ATOM      4  C   UNL     1     -19.270  42.233  -2.461  1.00  0.00     0.000 C 
BRANCH   4   5
ATOM      5  C   UNL     1     -20.460  41.508  -1.813  1.00  0.00     0.000 C 
BRANCH   5   6
ATOM      6  C   UNL     1     -20.823  42.082  -0.433  1.00  0.00     0.000 C 
BRANCH   6   7
ATOM      7  C   UNL     1     -21.291  41.003   0.558  1.00  0.00     0.000 C 
BRANCH   7   8
ATOM      8  C   UNL     1     -21.257  39.586  -0.045  1.00  0.00     0.000 C 
BRANCH   8   9
ATOM      9  C   UNL     1     -22.446  38.723   0.404  1.00  0.00     0.000 C 
BRANCH   9  10
ATOM     10  C   UNL     1     -22.013  37.485   1.204  1.00  0.00     0.000 C 
BRANCH  10  11
ATOM     11  C   UNL     1     -20.524  37.190   0.989  1.00  0.00     0.000 C 
BRANCH  11  12
ATOM     12  C   UNL     1     -20.082  35.959   1.787  1.00  0.00     0.000 C 
BRANCH  12  13
ATOM     13  C   UNL     1     -19.897  34.743   0.866  1.00  0.00     0.006 C 
BRANCH  13  14
ATOM     14  C   UNL     1     -20.745  34.843  -0.409  1.00  0.00     0.053 C 
BRANCH  14  15
ATOM     15  C   UNL     1     -20.690  33.580  -1.212  1.00  0.00     0.041 C 
ATOM     16  O   UNL     1     -21.751  33.064  -1.656  1.00  0.00    -0.550 OA
ATOM     17  O   UNL     1     -19.465  32.992  -1.504  1.00  0.00    -0.550 OA
ENDBRANCH  14  15
ENDBRANCH  13  14
ENDBRANCH  12  13
ENDBRANCH  11  12
ENDBRANCH  10  11
ENDBRANCH   9  10
ENDBRANCH   8   9
ENDBRANCH   7   8
ENDBRANCH   6   7
ENDBRANCH   5   6
ENDBRANCH   4   5
ENDBRANCH   3   4
ENDBRANCH   2   3
ENDBRANCH   1   2
BRANCH   1  18
ATOM     18  C   UNL     1     -16.801  42.563  -4.863  1.00  0.00     0.000 C 
BRANCH  18  19
ATOM     19  C   UNL     1     -16.132  42.954  -6.191  1.00  0.00     0.000 C 
BRANCH  19  20
ATOM     20  C   UNL     1     -15.761  44.445  -6.262  1.00  0.00     0.000 C 
BRANCH  20  21
ATOM     21  C   UNL     1     -16.047  45.011  -7.660  1.00  0.00     0.000 C 
BRANCH  21  22
ATOM     22  C   UNL     1     -15.438  44.164  -8.792  1.00  0.00     0.000 C 
BRANCH  22  23
ATOM     23  C   UNL     1     -14.957  44.987 -10.004  1.00  0.00     0.000 C 
BRANCH  23  24
ATOM     24  C   UNL     1     -16.088  45.293 -11.001  1.00  0.00    -0.000 C 
BRANCH  24  25
ATOM     25  C   UNL     1     -16.584  46.746 -10.915  1.00  0.00    -0.000 C 
BRANCH  25  26
ATOM     26  C   UNL     1     -18.107  46.899 -11.125  1.00  0.00    -0.000 C 
BRANCH  26  27
ATOM     27  C   UNL     1     -18.837  45.545 -11.060  1.00  0.00    -0.000 C 
BRANCH  27  28
ATOM     28  C   UNL     1     -19.144  45.104  -9.622  1.00  0.00    -0.000 C 
BRANCH  28  29
ATOM     29  C   UNL     1     -19.749  43.690  -9.553  1.00  0.00    -0.000 C 
BRANCH  29  30
ATOM     30  C   UNL     1     -18.675  42.591  -9.521  1.00  0.00    -0.000 C 
BRANCH  30  31
ATOM     31  C   UNL     1     -17.980  42.407 -10.878  1.00  0.00    -0.003 C 
ATOM     32  C   UNL     1     -17.577  40.951 -11.096  1.00  0.00     0.004 C 
ENDBRANCH  30  31
ENDBRANCH  29  30
ENDBRANCH  28  29
ENDBRANCH  27  28
ENDBRANCH  26  27
ENDBRANCH  25  26
ENDBRANCH  24  25
ENDBRANCH  23  24
ENDBRANCH  22  23
ENDBRANCH  21  22
ENDBRANCH  20  21
ENDBRANCH  19  20
ENDBRANCH  18  19
ENDBRANCH   1  18
TORSDOF 28
ENDMDL
