MODEL 1
REMARK VINA RESULT:    -1.452      0.000      0.000
REMARK INTER + INTRA:          -1.158
REMARK INTER:                  -1.580
REMARK INTRA:                   0.422
REMARK UNBOUND:                 0.422
REMARK SMILES C[C@H]1[C@H](C)CC[C@@]2(C(=O)[O-])CC[C@@]3(C)C(=CC[C@@H]4[C@@]5(C)CC[C@@H](O)C(C)(C)[C@@H]5CC[C@]43C)[C@H]12
REMARK SMILES IDX 7 1 6 2 11 3 33 4 5 5 12 6 15 7 2 8 3 9 13 10 16 11 1 12
REMARK SMILES IDX 4 13 14 14 31 15 17 16 18 17 30 18 32 19 19 20 29 21 28 22
REMARK SMILES IDX 21 23 20 24 25 25 22 26 23 27 26 28 27 29 8 30 9 31 10 32
REMARK SMILES IDX 24 33
REMARK H PARENT 24 34
REMARK Flexibility Score: inf
ROOT
ATOM      1  C   UNL     1      23.271  32.514  28.865  1.00  0.00     0.017 C 
ATOM      2  C   UNL     1      24.096  33.491  29.741  1.00  0.00     0.014 C 
ATOM      3  C   UNL     1      24.125  31.245  28.499  1.00  0.00     0.014 C 
ATOM      4  C   UNL     1      22.015  32.105  29.712  1.00  0.00     0.030 C 
ATOM      5  C   UNL     1      23.275  34.739  30.112  1.00  0.00     0.004 C 
ATOM      6  C   UNL     1      23.750  29.991  29.317  1.00  0.00     0.013 C 
ATOM      7  C   UNL     1      21.385  30.861  29.082  1.00  0.00    -0.063 C 
ATOM      8  C   UNL     1      21.113  33.316  30.105  1.00  0.00    -0.003 C 
ATOM      9  C   UNL     1      21.971  34.386  30.862  1.00  0.00    -0.011 C 
ATOM     10  C   UNL     1      22.233  29.555  29.148  1.00  0.00    -0.006 C 
ATOM     11  C   UNL     1      20.280  30.971  28.313  1.00  0.00    -0.027 C 
ATOM     12  C   UNL     1      19.944  32.854  31.007  1.00  0.00     0.008 C 
ATOM     13  C   UNL     1      21.180  35.679  31.125  1.00  0.00     0.008 C 
ATOM     14  C   UNL     1      21.851  28.912  30.518  1.00  0.00     0.017 C 
ATOM     15  C   UNL     1      21.961  28.534  27.876  1.00  0.00    -0.020 C 
ATOM     16  C   UNL     1      19.909  29.940  27.303  1.00  0.00     0.032 C 
ATOM     17  C   UNL     1      21.202  29.317  26.727  1.00  0.00     0.006 C 
ATOM     18  C   UNL     1      23.286  27.963  27.265  1.00  0.00     0.008 C 
ATOM     19  C   UNL     1      21.141  27.280  28.342  1.00  0.00     0.012 C 
ATOM     20  C   UNL     1      21.038  28.601  25.309  1.00  0.00    -0.025 C 
ATOM     21  C   UNL     1      23.113  27.201  25.940  1.00  0.00     0.005 C 
ATOM     22  C   UNL     1      22.472  28.116  24.869  1.00  0.00     0.003 C 
ATOM     23  C   UNL     1      20.556  29.658  24.258  1.00  0.00     0.010 C 
ATOM     24  C   UNL     1      19.975  27.455  25.368  1.00  0.00     0.012 C 
ATOM     25  C   UNL     1      22.618  27.609  23.378  1.00  0.00    -0.006 C 
ATOM     26  C   UNL     1      20.641  29.187  22.795  1.00  0.00     0.033 C 
ATOM     27  C   UNL     1      22.035  28.680  22.392  1.00  0.00     0.120 C 
ATOM     28  C   UNL     1      24.118  27.405  23.024  1.00  0.00     0.014 C 
ATOM     29  C   UNL     1      21.920  26.246  23.132  1.00  0.00     0.014 C 
ENDROOT
BRANCH   1  30
ATOM     30  C   UNL     1      22.918  33.211  27.548  1.00  0.00     0.048 C 
ATOM     31  O   UNL     1      22.937  34.469  27.482  1.00  0.00    -0.550 OA
ATOM     32  O   UNL     1      22.662  32.495  26.388  1.00  0.00    -0.550 OA
ENDBRANCH   1  30
BRANCH  27  33
ATOM     33  O   UNL     1      22.915  29.763  22.190  1.00  0.00    -0.393 OA
ATOM     34  H   UNL     1      23.440  29.904  23.017  1.00  0.00     0.210 HD
ENDBRANCH  27  33
TORSDOF 2
ENDMDL
