MODEL 1
REMARK VINA RESULT:    -4.255      0.000      0.000
REMARK INTER + INTRA:          -6.952
REMARK INTER:                  -6.121
REMARK INTRA:                  -0.831
REMARK UNBOUND:                -0.831
REMARK SMILES O=c1cc(-c2ccc(O)c(O)c2)oc2cc(O[C@H]3O[C@H](CO)[C@H](O)[C@H](O)[C@@H]3O)cc(O)c12
REMARK SMILES IDX 17 1 16 2 4 3 3 4 13 5 2 6 14 7 1 8 32 9 15 10 30 11 29 12
REMARK SMILES IDX 5 13 6 14 7 15 8 16 12 17 10 18 9 19 11 21 31 23 18 25 27 26
REMARK SMILES IDX 19 27 25 28 20 29 23 30 28 31 26 33 21 35 22 36 24 38
REMARK H PARENT 9 20 11 22 31 24 28 32 26 34 22 37 24 39
REMARK Flexibility Score: inf
ROOT
ATOM      1  O   UNL     1       2.325  -1.250   9.870  1.00  0.00    -0.462 OA
ENDROOT
BRANCH   1   2
ATOM      2  C   UNL     1       1.496  -0.338  10.529  1.00  0.00     0.130 A 
ATOM      3  C   UNL     1      -0.640   3.915  10.443  1.00  0.00     0.138 A 
ATOM      4  C   UNL     1      -1.150   3.766  11.735  1.00  0.00     0.100 A 
ATOM      5  O   UNL     1       0.075   2.933   9.905  1.00  0.00    -0.456 OA
ATOM      6  C   UNL     1      -0.882   2.604  12.456  1.00  0.00     0.197 A 
ATOM      7  C   UNL     1       0.361   1.804  10.544  1.00  0.00     0.146 A 
ATOM      8  O   UNL     1      -1.343   2.511  13.623  1.00  0.00    -0.289 OA
ATOM      9  C   UNL     1      -0.105   1.575  11.868  1.00  0.00     0.107 A 
ATOM     10  C   UNL     1       1.141   0.846   9.889  1.00  0.00     0.094 A 
ATOM     11  C   UNL     1       0.250   0.347  12.509  1.00  0.00     0.134 A 
ATOM     12  C   UNL     1       1.063  -0.575  11.835  1.00  0.00     0.093 A 
BRANCH   3  13
ATOM     13  C   UNL     1      -0.876   5.143   9.652  1.00  0.00     0.021 A 
ATOM     14  C   UNL     1       0.101   6.152   9.571  1.00  0.00     0.016 A 
ATOM     15  C   UNL     1      -0.123   7.290   8.792  1.00  0.00     0.051 A 
ATOM     16  C   UNL     1      -1.322   7.444   8.086  1.00  0.00     0.157 A 
ATOM     17  C   UNL     1      -2.081   5.300   8.946  1.00  0.00     0.062 A 
ATOM     18  C   UNL     1      -2.308   6.445   8.167  1.00  0.00     0.158 A 
BRANCH  16  19
ATOM     19  O   UNL     1      -1.513   8.590   7.313  1.00  0.00    -0.504 OA
ATOM     20  H   UNL     1      -2.070   9.371   7.639  1.00  0.00     0.293 HD
ENDBRANCH  16  19
BRANCH  18  21
ATOM     21  O   UNL     1      -3.507   6.595   7.472  1.00  0.00    -0.504 OA
ATOM     22  H   UNL     1      -4.292   5.970   7.628  1.00  0.00     0.293 HD
ENDBRANCH  18  21
ENDBRANCH   3  13
BRANCH  11  23
ATOM     23  O   UNL     1      -0.165  -0.022  13.793  1.00  0.00    -0.507 OA
ATOM     24  H   UNL     1      -1.097  -0.298  14.057  1.00  0.00     0.293 HD
ENDBRANCH  11  23
ENDBRANCH   1   2
BRANCH   1  25
ATOM     25  C   UNL     1       2.767  -2.480  10.456  1.00  0.00     0.339 C 
ATOM     26  C   UNL     1       3.996  -3.055   9.734  1.00  0.00     0.214 C 
ATOM     27  O   UNL     1       1.711  -3.429  10.458  1.00  0.00    -0.332 OA
ATOM     28  C   UNL     1       3.614  -3.369   8.279  1.00  0.00     0.180 C 
ATOM     29  C   UNL     1       1.249  -3.709   9.141  1.00  0.00     0.179 C 
ATOM     30  C   UNL     1       2.370  -4.287   8.229  1.00  0.00     0.177 C 
BRANCH  26  31
ATOM     31  O   UNL     1       4.410  -4.234  10.381  1.00  0.00    -0.384 OA
ATOM     32  H   UNL     1       3.660  -4.526  10.965  1.00  0.00     0.211 HD
ENDBRANCH  26  31
BRANCH  28  33
ATOM     33  O   UNL     1       4.704  -3.962   7.620  1.00  0.00    -0.387 OA
ATOM     34  H   UNL     1       5.468  -3.331   7.708  1.00  0.00     0.211 HD
ENDBRANCH  28  33
BRANCH  29  35
ATOM     35  C   UNL     1       0.021  -4.634   9.225  1.00  0.00     0.191 C 
BRANCH  35  36
ATOM     36  O   UNL     1      -0.094  -5.450   8.086  1.00  0.00    -0.394 OA
ATOM     37  H   UNL     1      -1.066  -5.583   7.921  1.00  0.00     0.210 HD
ENDBRANCH  35  36
ENDBRANCH  29  35
BRANCH  30  38
ATOM     38  O   UNL     1       2.715  -5.593   8.622  1.00  0.00    -0.387 OA
ATOM     39  H   UNL     1       2.042  -5.870   9.300  1.00  0.00     0.211 HD
ENDBRANCH  30  38
ENDBRANCH   1  25
TORSDOF 11
ENDMDL
MODEL 2
REMARK VINA RESULT:    -4.234      4.616      5.866
REMARK INTER + INTRA:          -6.921
REMARK INTER:                  -5.921
REMARK INTRA:                  -1.000
REMARK UNBOUND:                -0.831
REMARK SMILES O=c1cc(-c2ccc(O)c(O)c2)oc2cc(O[C@H]3O[C@H](CO)[C@H](O)[C@H](O)[C@@H]3O)cc(O)c12
REMARK SMILES IDX 17 1 16 2 4 3 3 4 13 5 2 6 14 7 1 8 32 9 15 10 30 11 29 12
REMARK SMILES IDX 5 13 6 14 7 15 8 16 12 17 10 18 9 19 11 21 31 23 18 25 27 26
REMARK SMILES IDX 19 27 25 28 20 29 23 30 28 31 26 33 21 35 22 36 24 38
REMARK H PARENT 9 20 11 22 31 24 28 32 26 34 22 37 24 39
REMARK Flexibility Score: inf
ROOT
ATOM      1  O   UNL     1       5.347   2.133   7.145  1.00  0.00    -0.462 OA
ENDROOT
BRANCH   1   2
ATOM      2  C   UNL     1       4.725   2.514   8.338  1.00  0.00     0.130 A 
ATOM      3  C   UNL     1       0.701   3.848  10.501  1.00  0.00     0.138 A 
ATOM      4  C   UNL     1       1.343   4.056  11.725  1.00  0.00     0.100 A 
ATOM      5  O   UNL     1       1.402   3.410   9.462  1.00  0.00    -0.456 OA
ATOM      6  C   UNL     1       2.713   3.830  11.837  1.00  0.00     0.197 A 
ATOM      7  C   UNL     1       2.709   3.177   9.510  1.00  0.00     0.146 A 
ATOM      8  O   UNL     1       3.260   4.043  12.948  1.00  0.00    -0.289 OA
ATOM      9  C   UNL     1       3.444   3.377  10.710  1.00  0.00     0.107 A 
ATOM     10  C   UNL     1       3.352   2.739   8.347  1.00  0.00     0.094 A 
ATOM     11  C   UNL     1       4.851   3.124  10.694  1.00  0.00     0.134 A 
ATOM     12  C   UNL     1       5.468   2.720   9.501  1.00  0.00     0.093 A 
BRANCH   3  13
ATOM     13  C   UNL     1      -0.747   4.101  10.330  1.00  0.00     0.021 A 
ATOM     14  C   UNL     1      -1.674   3.695  11.308  1.00  0.00     0.016 A 
ATOM     15  C   UNL     1      -3.034   3.972  11.150  1.00  0.00     0.051 A 
ATOM     16  C   UNL     1      -3.493   4.654  10.016  1.00  0.00     0.157 A 
ATOM     17  C   UNL     1      -1.210   4.782   9.191  1.00  0.00     0.062 A 
ATOM     18  C   UNL     1      -2.576   5.057   9.030  1.00  0.00     0.158 A 
BRANCH  16  19
ATOM     19  O   UNL     1      -4.857   4.920   9.891  1.00  0.00    -0.504 OA
ATOM     20  H   UNL     1      -5.446   5.096  10.696  1.00  0.00     0.293 HD
ENDBRANCH  16  19
BRANCH  18  21
ATOM     21  O   UNL     1      -3.028   5.730   7.896  1.00  0.00    -0.504 OA
ATOM     22  H   UNL     1      -3.683   6.502   7.964  1.00  0.00     0.293 HD
ENDBRANCH  18  21
ENDBRANCH   3  13
BRANCH  11  23
ATOM     23  O   UNL     1       5.689   3.247  11.808  1.00  0.00    -0.507 OA
ATOM     24  H   UNL     1       5.390   3.368  12.762  1.00  0.00     0.293 HD
ENDBRANCH  11  23
ENDBRANCH   1   2
BRANCH   1  25
ATOM     25  C   UNL     1       4.627   1.728   5.975  1.00  0.00     0.339 C 
ATOM     26  C   UNL     1       4.808   0.232   5.674  1.00  0.00     0.214 C 
ATOM     27  O   UNL     1       5.030   2.505   4.857  1.00  0.00    -0.332 OA
ATOM     28  C   UNL     1       6.294  -0.041   5.396  1.00  0.00     0.180 C 
ATOM     29  C   UNL     1       6.421   2.364   4.589  1.00  0.00     0.179 C 
ATOM     30  C   UNL     1       6.819   0.892   4.280  1.00  0.00     0.177 C 
BRANCH  26  31
ATOM     31  O   UNL     1       4.042  -0.115   4.546  1.00  0.00    -0.384 OA
ATOM     32  H   UNL     1       4.423   0.378   3.771  1.00  0.00     0.211 HD
ENDBRANCH  26  31
BRANCH  28  33
ATOM     33  O   UNL     1       6.472  -1.391   5.049  1.00  0.00    -0.387 OA
ATOM     34  H   UNL     1       5.657  -1.873   5.353  1.00  0.00     0.211 HD
ENDBRANCH  28  33
BRANCH  29  35
ATOM     35  C   UNL     1       6.816   3.332   3.459  1.00  0.00     0.191 C 
BRANCH  35  36
ATOM     36  O   UNL     1       5.876   3.323   2.414  1.00  0.00    -0.394 OA
ATOM     37  H   UNL     1       5.315   4.138   2.520  1.00  0.00     0.210 HD
ENDBRANCH  35  36
ENDBRANCH  29  35
BRANCH  30  38
ATOM     38  O   UNL     1       6.314   0.486   3.031  1.00  0.00    -0.387 OA
ATOM     39  H   UNL     1       6.859   0.951   2.342  1.00  0.00     0.211 HD
ENDBRANCH  30  38
ENDBRANCH   1  25
TORSDOF 11
ENDMDL
MODEL 3
REMARK VINA RESULT:    -4.203      3.191     10.879
REMARK INTER + INTRA:          -6.876
REMARK INTER:                  -5.934
REMARK INTRA:                  -0.941
REMARK UNBOUND:                -0.831
REMARK SMILES O=c1cc(-c2ccc(O)c(O)c2)oc2cc(O[C@H]3O[C@H](CO)[C@H](O)[C@H](O)[C@@H]3O)cc(O)c12
REMARK SMILES IDX 17 1 16 2 4 3 3 4 13 5 2 6 14 7 1 8 32 9 15 10 30 11 29 12
REMARK SMILES IDX 5 13 6 14 7 15 8 16 12 17 10 18 9 19 11 21 31 23 18 25 27 26
REMARK SMILES IDX 19 27 25 28 20 29 23 30 28 31 26 33 21 35 22 36 24 38
REMARK H PARENT 9 20 11 22 31 24 28 32 26 34 22 37 24 39
REMARK Flexibility Score: inf
ROOT
ATOM      1  O   UNL     1      -3.113   8.460   7.213  1.00  0.00    -0.462 OA
ENDROOT
BRANCH   1   2
ATOM      2  C   UNL     1      -1.906   8.036   7.777  1.00  0.00     0.130 A 
ATOM      3  C   UNL     1       0.495   4.530   9.920  1.00  0.00     0.138 A 
ATOM      4  C   UNL     1       1.632   5.322  10.103  1.00  0.00     0.100 A 
ATOM      5  O   UNL     1      -0.563   5.038   9.298  1.00  0.00    -0.456 OA
ATOM      6  C   UNL     1       1.636   6.642   9.657  1.00  0.00     0.197 A 
ATOM      7  C   UNL     1      -0.616   6.289   8.852  1.00  0.00     0.146 A 
ATOM      8  O   UNL     1       2.670   7.331   9.853  1.00  0.00    -0.289 OA
ATOM      9  C   UNL     1       0.490   7.168   9.009  1.00  0.00     0.107 A 
ATOM     10  C   UNL     1      -1.790   6.726   8.231  1.00  0.00     0.094 A 
ATOM     11  C   UNL     1       0.366   8.506   8.521  1.00  0.00     0.134 A 
ATOM     12  C   UNL     1      -0.839   8.921   7.936  1.00  0.00     0.093 A 
BRANCH   3  13
ATOM     13  C   UNL     1       0.437   3.132  10.402  1.00  0.00     0.021 A 
ATOM     14  C   UNL     1      -0.392   2.771  11.481  1.00  0.00     0.016 A 
ATOM     15  C   UNL     1      -0.461   1.441  11.902  1.00  0.00     0.051 A 
ATOM     16  C   UNL     1       0.293   0.452  11.261  1.00  0.00     0.157 A 
ATOM     17  C   UNL     1       1.198   2.138   9.762  1.00  0.00     0.062 A 
ATOM     18  C   UNL     1       1.131   0.803  10.188  1.00  0.00     0.158 A 
BRANCH  16  19
ATOM     19  O   UNL     1       0.197  -0.869  11.703  1.00  0.00    -0.504 OA
ATOM     20  H   UNL     1       0.361  -1.125  12.669  1.00  0.00     0.293 HD
ENDBRANCH  16  19
BRANCH  18  21
ATOM     21  O   UNL     1       1.890  -0.176   9.550  1.00  0.00    -0.504 OA
ATOM     22  H   UNL     1       2.663  -0.637  10.020  1.00  0.00     0.293 HD
ENDBRANCH  18  21
ENDBRANCH   3  13
BRANCH  11  23
ATOM     23  O   UNL     1       1.383   9.466   8.580  1.00  0.00    -0.507 OA
ATOM     24  H   UNL     1       2.373   9.282   8.547  1.00  0.00     0.293 HD
ENDBRANCH  11  23
ENDBRANCH   1   2
BRANCH   1  25
ATOM     25  C   UNL     1      -3.770   7.768   6.145  1.00  0.00     0.339 C 
ATOM     26  C   UNL     1      -3.585   8.480   4.795  1.00  0.00     0.214 C 
ATOM     27  O   UNL     1      -5.152   7.616   6.434  1.00  0.00    -0.332 OA
ATOM     28  C   UNL     1      -4.225   9.874   4.880  1.00  0.00     0.180 C 
ATOM     29  C   UNL     1      -5.796   8.873   6.606  1.00  0.00     0.179 C 
ATOM     30  C   UNL     1      -5.699   9.769   5.338  1.00  0.00     0.177 C 
BRANCH  26  31
ATOM     31  O   UNL     1      -4.210   7.731   3.781  1.00  0.00    -0.384 OA
ATOM     32  H   UNL     1      -4.859   8.333   3.330  1.00  0.00     0.211 HD
ENDBRANCH  26  31
BRANCH  28  33
ATOM     33  O   UNL     1      -4.129  10.515   3.633  1.00  0.00    -0.387 OA
ATOM     34  H   UNL     1      -3.242  10.274   3.255  1.00  0.00     0.211 HD
ENDBRANCH  28  33
BRANCH  29  35
ATOM     35  C   UNL     1      -7.251   8.636   7.050  1.00  0.00     0.191 C 
BRANCH  35  36
ATOM     36  O   UNL     1      -7.836   7.560   6.360  1.00  0.00    -0.394 OA
ATOM     37  H   UNL     1      -8.801   7.550   6.601  1.00  0.00     0.210 HD
ENDBRANCH  35  36
ENDBRANCH  29  35
BRANCH  30  38
ATOM     38  O   UNL     1      -6.495   9.256   4.297  1.00  0.00    -0.387 OA
ATOM     39  H   UNL     1      -6.572   9.979   3.619  1.00  0.00     0.211 HD
ENDBRANCH  30  38
ENDBRANCH   1  25
TORSDOF 11
ENDMDL
MODEL 4
REMARK VINA RESULT:    -4.194      2.033      3.224
REMARK INTER + INTRA:          -6.864
REMARK INTER:                  -5.998
REMARK INTRA:                  -0.866
REMARK UNBOUND:                -0.831
REMARK SMILES O=c1cc(-c2ccc(O)c(O)c2)oc2cc(O[C@H]3O[C@H](CO)[C@H](O)[C@H](O)[C@@H]3O)cc(O)c12
REMARK SMILES IDX 17 1 16 2 4 3 3 4 13 5 2 6 14 7 1 8 32 9 15 10 30 11 29 12
REMARK SMILES IDX 5 13 6 14 7 15 8 16 12 17 10 18 9 19 11 21 31 23 18 25 27 26
REMARK SMILES IDX 19 27 25 28 20 29 23 30 28 31 26 33 21 35 22 36 24 38
REMARK H PARENT 9 20 11 22 31 24 28 32 26 34 22 37 24 39
REMARK Flexibility Score: inf
ROOT
ATOM      1  O   UNL     1       1.403  -1.649  11.302  1.00  0.00    -0.462 OA
ENDROOT
BRANCH   1   2
ATOM      2  C   UNL     1       1.758  -0.316  11.073  1.00  0.00     0.130 A 
ATOM      3  C   UNL     1       0.317   4.053   9.855  1.00  0.00     0.138 A 
ATOM      4  C   UNL     1       1.617   4.566   9.874  1.00  0.00     0.100 A 
ATOM      5  O   UNL     1       0.112   2.779  10.168  1.00  0.00    -0.456 OA
ATOM      6  C   UNL     1       2.686   3.733  10.194  1.00  0.00     0.197 A 
ATOM      7  C   UNL     1       1.092   1.938  10.481  1.00  0.00     0.146 A 
ATOM      8  O   UNL     1       3.844   4.223  10.186  1.00  0.00    -0.289 OA
ATOM      9  C   UNL     1       2.446   2.372  10.511  1.00  0.00     0.107 A 
ATOM     10  C   UNL     1       0.763   0.610  10.772  1.00  0.00     0.094 A 
ATOM     11  C   UNL     1       3.457   1.416  10.840  1.00  0.00     0.134 A 
ATOM     12  C   UNL     1       3.095   0.084  11.091  1.00  0.00     0.093 A 
BRANCH   3  13
ATOM     13  C   UNL     1      -0.845   4.896   9.494  1.00  0.00     0.021 A 
ATOM     14  C   UNL     1      -0.668   6.140   8.861  1.00  0.00     0.016 A 
ATOM     15  C   UNL     1      -1.776   6.910   8.495  1.00  0.00     0.051 A 
ATOM     16  C   UNL     1      -3.074   6.455   8.756  1.00  0.00     0.157 A 
ATOM     17  C   UNL     1      -2.149   4.443   9.759  1.00  0.00     0.062 A 
ATOM     18  C   UNL     1      -3.261   5.217   9.396  1.00  0.00     0.158 A 
BRANCH  16  19
ATOM     19  O   UNL     1      -4.159   7.245   8.373  1.00  0.00    -0.504 OA
ATOM     20  H   UNL     1      -4.899   6.889   7.781  1.00  0.00     0.293 HD
ENDBRANCH  16  19
BRANCH  18  21
ATOM     21  O   UNL     1      -4.551   4.763   9.665  1.00  0.00    -0.504 OA
ATOM     22  H   UNL     1      -5.178   4.476   8.919  1.00  0.00     0.293 HD
ENDBRANCH  18  21
ENDBRANCH   3  13
BRANCH  11  23
ATOM     23  O   UNL     1       4.821   1.711  10.938  1.00  0.00    -0.507 OA
ATOM     24  H   UNL     1       5.312   1.963  11.779  1.00  0.00     0.293 HD
ENDBRANCH  11  23
ENDBRANCH   1   2
BRANCH   1  25
ATOM     25  C   UNL     1       0.390  -2.334  10.556  1.00  0.00     0.339 C 
ATOM     26  C   UNL     1      -0.173  -3.542  11.322  1.00  0.00     0.214 C 
ATOM     27  O   UNL     1       0.902  -2.747   9.297  1.00  0.00    -0.332 OA
ATOM     28  C   UNL     1       0.961  -4.550  11.559  1.00  0.00     0.180 C 
ATOM     29  C   UNL     1       2.013  -3.625   9.441  1.00  0.00     0.179 C 
ATOM     30  C   UNL     1       1.649  -4.919  10.224  1.00  0.00     0.177 C 
BRANCH  26  31
ATOM     31  O   UNL     1      -1.193  -4.143  10.562  1.00  0.00    -0.384 OA
ATOM     32  H   UNL     1      -0.907  -5.077  10.376  1.00  0.00     0.211 HD
ENDBRANCH  26  31
BRANCH  28  33
ATOM     33  O   UNL     1       0.452  -5.695  12.196  1.00  0.00    -0.387 OA
ATOM     34  H   UNL     1      -0.110  -6.168  11.527  1.00  0.00     0.211 HD
ENDBRANCH  28  33
BRANCH  29  35
ATOM     35  C   UNL     1       2.601  -3.922   8.050  1.00  0.00     0.191 C 
BRANCH  35  36
ATOM     36  O   UNL     1       2.908  -2.742   7.351  1.00  0.00    -0.394 OA
ATOM     37  H   UNL     1       3.424  -2.162   7.973  1.00  0.00     0.210 HD
ENDBRANCH  35  36
ENDBRANCH  29  35
BRANCH  30  38
ATOM     38  O   UNL     1       0.811  -5.751   9.460  1.00  0.00    -0.387 OA
ATOM     39  H   UNL     1       1.408  -6.306   8.891  1.00  0.00     0.211 HD
ENDBRANCH  30  38
ENDBRANCH   1  25
TORSDOF 11
ENDMDL
MODEL 5
REMARK VINA RESULT:    -4.164      2.007      3.197
REMARK INTER + INTRA:          -6.820
REMARK INTER:                  -5.832
REMARK INTRA:                  -0.988
REMARK UNBOUND:                -0.831
REMARK SMILES O=c1cc(-c2ccc(O)c(O)c2)oc2cc(O[C@H]3O[C@H](CO)[C@H](O)[C@H](O)[C@@H]3O)cc(O)c12
REMARK SMILES IDX 17 1 16 2 4 3 3 4 13 5 2 6 14 7 1 8 32 9 15 10 30 11 29 12
REMARK SMILES IDX 5 13 6 14 7 15 8 16 12 17 10 18 9 19 11 21 31 23 18 25 27 26
REMARK SMILES IDX 19 27 25 28 20 29 23 30 28 31 26 33 21 35 22 36 24 38
REMARK H PARENT 9 20 11 22 31 24 28 32 26 34 22 37 24 39
REMARK Flexibility Score: inf
ROOT
ATOM      1  O   UNL     1       2.331  -1.378  10.260  1.00  0.00    -0.462 OA
ENDROOT
BRANCH   1   2
ATOM      2  C   UNL     1       2.504   0.008  10.295  1.00  0.00     0.130 A 
ATOM      3  C   UNL     1       0.528   4.302   9.733  1.00  0.00     0.138 A 
ATOM      4  C   UNL     1       1.738   4.967   9.951  1.00  0.00     0.100 A 
ATOM      5  O   UNL     1       0.490   2.976   9.804  1.00  0.00    -0.456 OA
ATOM      6  C   UNL     1       2.895   4.235  10.210  1.00  0.00     0.197 A 
ATOM      7  C   UNL     1       1.560   2.227  10.048  1.00  0.00     0.146 A 
ATOM      8  O   UNL     1       3.969   4.866  10.384  1.00  0.00    -0.289 OA
ATOM      9  C   UNL     1       2.833   2.820  10.265  1.00  0.00     0.107 A 
ATOM     10  C   UNL     1       1.407   0.837  10.076  1.00  0.00     0.094 A 
ATOM     11  C   UNL     1       3.949   1.960  10.508  1.00  0.00     0.134 A 
ATOM     12  C   UNL     1       3.767   0.569  10.494  1.00  0.00     0.093 A 
BRANCH   3  13
ATOM     13  C   UNL     1      -0.718   5.038   9.428  1.00  0.00     0.021 A 
ATOM     14  C   UNL     1      -0.679   6.321   8.851  1.00  0.00     0.016 A 
ATOM     15  C   UNL     1      -1.864   6.990   8.536  1.00  0.00     0.051 A 
ATOM     16  C   UNL     1      -3.106   6.395   8.793  1.00  0.00     0.157 A 
ATOM     17  C   UNL     1      -1.965   4.444   9.690  1.00  0.00     0.062 A 
ATOM     18  C   UNL     1      -3.156   5.117   9.377  1.00  0.00     0.158 A 
BRANCH  16  19
ATOM     19  O   UNL     1      -4.271   7.087   8.462  1.00  0.00    -0.504 OA
ATOM     20  H   UNL     1      -4.257   8.060   8.181  1.00  0.00     0.293 HD
ENDBRANCH  16  19
BRANCH  18  21
ATOM     21  O   UNL     1      -4.389   4.523   9.642  1.00  0.00    -0.504 OA
ATOM     22  H   UNL     1      -4.465   3.532   9.851  1.00  0.00     0.293 HD
ENDBRANCH  18  21
ENDBRANCH   3  13
BRANCH  11  23
ATOM     23  O   UNL     1       5.249   2.407  10.769  1.00  0.00    -0.507 OA
ATOM     24  H   UNL     1       5.862   2.056  11.487  1.00  0.00     0.293 HD
ENDBRANCH  11  23
ENDBRANCH   1   2
BRANCH   1  25
ATOM     25  C   UNL     1       3.133  -2.252   9.456  1.00  0.00     0.339 C 
ATOM     26  C   UNL     1       2.283  -3.076   8.475  1.00  0.00     0.214 C 
ATOM     27  O   UNL     1       3.900  -3.114  10.283  1.00  0.00    -0.332 OA
ATOM     28  C   UNL     1       1.324  -3.967   9.278  1.00  0.00     0.180 C 
ATOM     29  C   UNL     1       3.073  -3.918  11.118  1.00  0.00     0.179 C 
ATOM     30  C   UNL     1       2.106  -4.823  10.303  1.00  0.00     0.177 C 
BRANCH  26  31
ATOM     31  O   UNL     1       3.127  -3.877   7.684  1.00  0.00    -0.384 OA
ATOM     32  H   UNL     1       2.628  -4.095   6.852  1.00  0.00     0.211 HD
ENDBRANCH  26  31
BRANCH  28  33
ATOM     33  O   UNL     1       0.586  -4.781   8.401  1.00  0.00    -0.387 OA
ATOM     34  H   UNL     1      -0.120  -5.220   8.945  1.00  0.00     0.211 HD
ENDBRANCH  28  33
BRANCH  29  35
ATOM     35  C   UNL     1       3.964  -4.724  12.081  1.00  0.00     0.191 C 
BRANCH  35  36
ATOM     36  O   UNL     1       5.065  -5.294  11.417  1.00  0.00    -0.394 OA
ATOM     37  H   UNL     1       4.859  -6.259  11.288  1.00  0.00     0.210 HD
ENDBRANCH  35  36
ENDBRANCH  29  35
BRANCH  30  38
ATOM     38  O   UNL     1       2.810  -5.846   9.643  1.00  0.00    -0.387 OA
ATOM     39  H   UNL     1       2.439  -5.895   8.722  1.00  0.00     0.211 HD
ENDBRANCH  30  38
ENDBRANCH   1  25
TORSDOF 11
ENDMDL
MODEL 6
REMARK VINA RESULT:    -4.141      1.123      2.189
REMARK INTER + INTRA:          -6.788
REMARK INTER:                  -5.854
REMARK INTRA:                  -0.934
REMARK UNBOUND:                -0.831
REMARK SMILES O=c1cc(-c2ccc(O)c(O)c2)oc2cc(O[C@H]3O[C@H](CO)[C@H](O)[C@H](O)[C@@H]3O)cc(O)c12
REMARK SMILES IDX 17 1 16 2 4 3 3 4 13 5 2 6 14 7 1 8 32 9 15 10 30 11 29 12
REMARK SMILES IDX 5 13 6 14 7 15 8 16 12 17 10 18 9 19 11 21 31 23 18 25 27 26
REMARK SMILES IDX 19 27 25 28 20 29 23 30 28 31 26 33 21 35 22 36 24 38
REMARK H PARENT 9 20 11 22 31 24 28 32 26 34 22 37 24 39
REMARK Flexibility Score: inf
ROOT
ATOM      1  O   UNL     1       2.505  -2.015   9.869  1.00  0.00    -0.462 OA
ENDROOT
BRANCH   1   2
ATOM      2  C   UNL     1       1.696  -1.116  10.571  1.00  0.00     0.130 A 
ATOM      3  C   UNL     1      -0.353   3.179  10.680  1.00  0.00     0.138 A 
ATOM      4  C   UNL     1      -0.863   2.983  11.966  1.00  0.00     0.100 A 
ATOM      5  O   UNL     1       0.340   2.207  10.096  1.00  0.00    -0.456 OA
ATOM      6  C   UNL     1      -0.617   1.785  12.634  1.00  0.00     0.197 A 
ATOM      7  C   UNL     1       0.604   1.045  10.685  1.00  0.00     0.146 A 
ATOM      8  O   UNL     1      -1.077   1.650  13.797  1.00  0.00    -0.289 OA
ATOM      9  C   UNL     1       0.138   0.768  11.998  1.00  0.00     0.107 A 
ATOM     10  C   UNL     1       1.364   0.102   9.985  1.00  0.00     0.094 A 
ATOM     11  C   UNL     1       0.468  -0.494  12.583  1.00  0.00     0.134 A 
ATOM     12  C   UNL     1       1.262  -1.402  11.867  1.00  0.00     0.093 A 
BRANCH   3  13
ATOM     13  C   UNL     1      -0.566   4.445   9.945  1.00  0.00     0.021 A 
ATOM     14  C   UNL     1       0.432   5.435   9.903  1.00  0.00     0.016 A 
ATOM     15  C   UNL     1       0.230   6.611   9.176  1.00  0.00     0.051 A 
ATOM     16  C   UNL     1      -0.969   6.822   8.484  1.00  0.00     0.157 A 
ATOM     17  C   UNL     1      -1.771   4.659   9.253  1.00  0.00     0.062 A 
ATOM     18  C   UNL     1      -1.976   5.842   8.526  1.00  0.00     0.158 A 
BRANCH  16  19
ATOM     19  O   UNL     1      -1.138   8.004   7.763  1.00  0.00    -0.504 OA
ATOM     20  H   UNL     1      -1.282   8.006   6.760  1.00  0.00     0.293 HD
ENDBRANCH  16  19
BRANCH  18  21
ATOM     21  O   UNL     1      -3.174   6.048   7.845  1.00  0.00    -0.504 OA
ATOM     22  H   UNL     1      -3.311   5.706   6.899  1.00  0.00     0.293 HD
ENDBRANCH  18  21
ENDBRANCH   3  13
BRANCH  11  23
ATOM     23  O   UNL     1       0.049  -0.912  13.851  1.00  0.00    -0.507 OA
ATOM     24  H   UNL     1       0.542  -1.548  14.457  1.00  0.00     0.293 HD
ENDBRANCH  11  23
ENDBRANCH   1   2
BRANCH   1  25
ATOM     25  C   UNL     1       2.012  -2.880   8.839  1.00  0.00     0.339 C 
ATOM     26  C   UNL     1       1.217  -4.064   9.410  1.00  0.00     0.214 C 
ATOM     27  O   UNL     1       3.085  -3.350   8.038  1.00  0.00    -0.332 OA
ATOM     28  C   UNL     1       2.152  -4.909  10.289  1.00  0.00     0.180 C 
ATOM     29  C   UNL     1       4.038  -4.078   8.806  1.00  0.00     0.179 C 
ATOM     30  C   UNL     1       3.415  -5.324   9.498  1.00  0.00     0.177 C 
BRANCH  26  31
ATOM     31  O   UNL     1       0.721  -4.849   8.353  1.00  0.00    -0.384 OA
ATOM     32  H   UNL     1       0.255  -5.627   8.760  1.00  0.00     0.211 HD
ENDBRANCH  26  31
BRANCH  28  33
ATOM     33  O   UNL     1       1.463  -6.038  10.765  1.00  0.00    -0.387 OA
ATOM     34  H   UNL     1       0.695  -5.699  11.299  1.00  0.00     0.211 HD
ENDBRANCH  28  33
BRANCH  29  35
ATOM     35  C   UNL     1       5.236  -4.438   7.909  1.00  0.00     0.191 C 
BRANCH  35  36
ATOM     36  O   UNL     1       4.832  -5.126   6.752  1.00  0.00    -0.394 OA
ATOM     37  H   UNL     1       4.770  -6.089   6.992  1.00  0.00     0.210 HD
ENDBRANCH  35  36
ENDBRANCH  29  35
BRANCH  30  38
ATOM     38  O   UNL     1       3.092  -6.315   8.554  1.00  0.00    -0.387 OA
ATOM     39  H   UNL     1       3.955  -6.643   8.183  1.00  0.00     0.211 HD
ENDBRANCH  30  38
ENDBRANCH   1  25
TORSDOF 11
ENDMDL
MODEL 7
REMARK VINA RESULT:    -4.080      2.310      9.783
REMARK INTER + INTRA:          -6.699
REMARK INTER:                  -5.785
REMARK INTRA:                  -0.914
REMARK UNBOUND:                -0.831
REMARK SMILES O=c1cc(-c2ccc(O)c(O)c2)oc2cc(O[C@H]3O[C@H](CO)[C@H](O)[C@H](O)[C@@H]3O)cc(O)c12
REMARK SMILES IDX 17 1 16 2 4 3 3 4 13 5 2 6 14 7 1 8 32 9 15 10 30 11 29 12
REMARK SMILES IDX 5 13 6 14 7 15 8 16 12 17 10 18 9 19 11 21 31 23 18 25 27 26
REMARK SMILES IDX 19 27 25 28 20 29 23 30 28 31 26 33 21 35 22 36 24 38
REMARK H PARENT 9 20 11 22 31 24 28 32 26 34 22 37 24 39
REMARK Flexibility Score: inf
ROOT
ATOM      1  O   UNL     1      -1.586   6.748   9.036  1.00  0.00    -0.462 OA
ENDROOT
BRANCH   1   2
ATOM      2  C   UNL     1      -0.478   5.946   9.325  1.00  0.00     0.130 A 
ATOM      3  C   UNL     1       1.138   1.621  10.481  1.00  0.00     0.138 A 
ATOM      4  C   UNL     1       2.457   2.066  10.599  1.00  0.00     0.100 A 
ATOM      5  O   UNL     1       0.188   2.478  10.124  1.00  0.00    -0.456 OA
ATOM      6  C   UNL     1       2.760   3.406  10.370  1.00  0.00     0.197 A 
ATOM      7  C   UNL     1       0.418   3.766   9.892  1.00  0.00     0.146 A 
ATOM      8  O   UNL     1       3.955   3.776  10.503  1.00  0.00    -0.289 OA
ATOM      9  C   UNL     1       1.728   4.307  10.005  1.00  0.00     0.107 A 
ATOM     10  C   UNL     1      -0.662   4.584   9.545  1.00  0.00     0.094 A 
ATOM     11  C   UNL     1       1.908   5.704   9.759  1.00  0.00     0.134 A 
ATOM     12  C   UNL     1       0.797   6.501   9.447  1.00  0.00     0.093 A 
BRANCH   3  13
ATOM     13  C   UNL     1       0.767   0.212  10.741  1.00  0.00     0.021 A 
ATOM     14  C   UNL     1      -0.113  -0.124  11.786  1.00  0.00     0.016 A 
ATOM     15  C   UNL     1      -0.480  -1.455  11.999  1.00  0.00     0.051 A 
ATOM     16  C   UNL     1       0.024  -2.471  11.178  1.00  0.00     0.157 A 
ATOM     17  C   UNL     1       1.277  -0.809   9.921  1.00  0.00     0.062 A 
ATOM     18  C   UNL     1       0.911  -2.147  10.137  1.00  0.00     0.158 A 
BRANCH  16  19
ATOM     19  O   UNL     1      -0.366  -3.790  11.413  1.00  0.00    -0.504 OA
ATOM     20  H   UNL     1      -0.296  -4.216  12.330  1.00  0.00     0.293 HD
ENDBRANCH  16  19
BRANCH  18  21
ATOM     21  O   UNL     1       1.423  -3.155   9.321  1.00  0.00    -0.504 OA
ATOM     22  H   UNL     1       2.409  -3.194   9.082  1.00  0.00     0.293 HD
ENDBRANCH  18  21
ENDBRANCH   3  13
BRANCH  11  23
ATOM     23  O   UNL     1       3.143   6.361   9.802  1.00  0.00    -0.507 OA
ATOM     24  H   UNL     1       3.996   5.991  10.188  1.00  0.00     0.293 HD
ENDBRANCH  11  23
ENDBRANCH   1   2
BRANCH   1  25
ATOM     25  C   UNL     1      -2.596   6.384   8.087  1.00  0.00     0.339 C 
ATOM     26  C   UNL     1      -3.101   7.596   7.289  1.00  0.00     0.214 C 
ATOM     27  O   UNL     1      -3.679   5.742   8.743  1.00  0.00    -0.332 OA
ATOM     28  C   UNL     1      -3.747   8.595   8.262  1.00  0.00     0.180 C 
ATOM     29  C   UNL     1      -4.277   6.585   9.721  1.00  0.00     0.179 C 
ATOM     30  C   UNL     1      -4.839   7.900   9.109  1.00  0.00     0.177 C 
BRANCH  26  31
ATOM     31  O   UNL     1      -4.053   7.171   6.344  1.00  0.00    -0.384 OA
ATOM     32  H   UNL     1      -3.622   6.465   5.792  1.00  0.00     0.211 HD
ENDBRANCH  26  31
BRANCH  28  33
ATOM     33  O   UNL     1      -4.280   9.679   7.544  1.00  0.00    -0.387 OA
ATOM     34  H   UNL     1      -4.259   9.423   6.584  1.00  0.00     0.211 HD
ENDBRANCH  28  33
BRANCH  29  35
ATOM     35  C   UNL     1      -5.348   5.786  10.486  1.00  0.00     0.191 C 
BRANCH  35  36
ATOM     36  O   UNL     1      -6.083   4.949   9.629  1.00  0.00    -0.394 OA
ATOM     37  H   UNL     1      -5.503   4.171   9.413  1.00  0.00     0.210 HD
ENDBRANCH  35  36
ENDBRANCH  29  35
BRANCH  30  38
ATOM     38  O   UNL     1      -5.974   7.642   8.319  1.00  0.00    -0.387 OA
ATOM     39  H   UNL     1      -5.756   6.848   7.763  1.00  0.00     0.211 HD
ENDBRANCH  30  38
ENDBRANCH   1  25
TORSDOF 11
ENDMDL
MODEL 8
REMARK VINA RESULT:    -4.038      5.539      6.715
REMARK INTER + INTRA:          -6.639
REMARK INTER:                  -5.609
REMARK INTRA:                  -1.029
REMARK UNBOUND:                -0.831
REMARK SMILES O=c1cc(-c2ccc(O)c(O)c2)oc2cc(O[C@H]3O[C@H](CO)[C@H](O)[C@H](O)[C@@H]3O)cc(O)c12
REMARK SMILES IDX 17 1 16 2 4 3 3 4 13 5 2 6 14 7 1 8 32 9 15 10 30 11 29 12
REMARK SMILES IDX 5 13 6 14 7 15 8 16 12 17 10 18 9 19 11 21 31 23 18 25 27 26
REMARK SMILES IDX 19 27 25 28 20 29 23 30 28 31 26 33 21 35 22 36 24 38
REMARK H PARENT 9 20 11 22 31 24 28 32 26 34 22 37 24 39
REMARK Flexibility Score: inf
ROOT
ATOM      1  O   UNL     1       1.219  -4.630   9.933  1.00  0.00    -0.462 OA
ENDROOT
BRANCH   1   2
ATOM      2  C   UNL     1       0.197  -3.923  10.572  1.00  0.00     0.130 A 
ATOM      3  C   UNL     1      -4.356  -2.536  10.502  1.00  0.00     0.138 A 
ATOM      4  C   UNL     1      -4.214  -1.763  11.659  1.00  0.00     0.100 A 
ATOM      5  O   UNL     1      -3.316  -3.222  10.043  1.00  0.00    -0.456 OA
ATOM      6  C   UNL     1      -2.980  -1.698  12.301  1.00  0.00     0.197 A 
ATOM      7  C   UNL     1      -2.116  -3.198  10.614  1.00  0.00     0.146 A 
ATOM      8  O   UNL     1      -2.884  -0.981  13.329  1.00  0.00    -0.289 OA
ATOM      9  C   UNL     1      -1.879  -2.427  11.784  1.00  0.00     0.107 A 
ATOM     10  C   UNL     1      -1.085  -3.942  10.030  1.00  0.00     0.094 A 
ATOM     11  C   UNL     1      -0.563  -2.430  12.343  1.00  0.00     0.134 A 
ATOM     12  C   UNL     1       0.455  -3.159  11.712  1.00  0.00     0.093 A 
BRANCH   3  13
ATOM     13  C   UNL     1      -5.641  -2.611   9.772  1.00  0.00     0.021 A 
ATOM     14  C   UNL     1      -5.836  -3.552   8.744  1.00  0.00     0.016 A 
ATOM     15  C   UNL     1      -7.066  -3.635   8.088  1.00  0.00     0.051 A 
ATOM     16  C   UNL     1      -8.119  -2.782   8.441  1.00  0.00     0.157 A 
ATOM     17  C   UNL     1      -6.697  -1.753  10.123  1.00  0.00     0.062 A 
ATOM     18  C   UNL     1      -7.932  -1.833   9.461  1.00  0.00     0.158 A 
BRANCH  16  19
ATOM     19  O   UNL     1      -9.337  -2.894   7.769  1.00  0.00    -0.504 OA
ATOM     20  H   UNL     1      -9.997  -2.127   7.722  1.00  0.00     0.293 HD
ENDBRANCH  16  19
BRANCH  18  21
ATOM     21  O   UNL     1      -8.974  -0.977   9.812  1.00  0.00    -0.504 OA
ATOM     22  H   UNL     1      -8.817  -0.167  10.404  1.00  0.00     0.293 HD
ENDBRANCH  18  21
ENDBRANCH   3  13
BRANCH  11  23
ATOM     23  O   UNL     1      -0.197  -1.745  13.507  1.00  0.00    -0.507 OA
ATOM     24  H   UNL     1       0.718  -1.740  13.927  1.00  0.00     0.293 HD
ENDBRANCH  11  23
ENDBRANCH   1   2
BRANCH   1  25
ATOM     25  C   UNL     1       1.461  -4.564   8.523  1.00  0.00     0.339 C 
ATOM     26  C   UNL     1       2.072  -5.866   7.980  1.00  0.00     0.214 C 
ATOM     27  O   UNL     1       2.305  -3.463   8.221  1.00  0.00    -0.332 OA
ATOM     28  C   UNL     1       3.434  -6.091   8.653  1.00  0.00     0.180 C 
ATOM     29  C   UNL     1       3.563  -3.565   8.879  1.00  0.00     0.179 C 
ATOM     30  C   UNL     1       4.341  -4.851   8.476  1.00  0.00     0.177 C 
BRANCH  26  31
ATOM     31  O   UNL     1       2.242  -5.758   6.587  1.00  0.00    -0.384 OA
ATOM     32  H   UNL     1       2.041  -4.816   6.340  1.00  0.00     0.211 HD
ENDBRANCH  26  31
BRANCH  28  33
ATOM     33  O   UNL     1       4.042  -7.240   8.119  1.00  0.00    -0.387 OA
ATOM     34  H   UNL     1       4.106  -7.901   8.859  1.00  0.00     0.211 HD
ENDBRANCH  28  33
BRANCH  29  35
ATOM     35  C   UNL     1       4.371  -2.281   8.620  1.00  0.00     0.191 C 
BRANCH  35  36
ATOM     36  O   UNL     1       4.201  -1.815   7.305  1.00  0.00    -0.394 OA
ATOM     37  H   UNL     1       5.061  -1.967   6.829  1.00  0.00     0.210 HD
ENDBRANCH  35  36
ENDBRANCH  29  35
BRANCH  30  38
ATOM     38  O   UNL     1       4.795  -4.768   7.147  1.00  0.00    -0.387 OA
ATOM     39  H   UNL     1       5.289  -3.909   7.072  1.00  0.00     0.211 HD
ENDBRANCH  30  38
ENDBRANCH   1  25
TORSDOF 11
ENDMDL
MODEL 9
REMARK VINA RESULT:    -4.021      2.182      2.963
REMARK INTER + INTRA:          -6.614
REMARK INTER:                  -5.638
REMARK INTRA:                  -0.976
REMARK UNBOUND:                -0.831
REMARK SMILES O=c1cc(-c2ccc(O)c(O)c2)oc2cc(O[C@H]3O[C@H](CO)[C@H](O)[C@H](O)[C@@H]3O)cc(O)c12
REMARK SMILES IDX 17 1 16 2 4 3 3 4 13 5 2 6 14 7 1 8 32 9 15 10 30 11 29 12
REMARK SMILES IDX 5 13 6 14 7 15 8 16 12 17 10 18 9 19 11 21 31 23 18 25 27 26
REMARK SMILES IDX 19 27 25 28 20 29 23 30 28 31 26 33 21 35 22 36 24 38
REMARK H PARENT 9 20 11 22 31 24 28 32 26 34 22 37 24 39
REMARK Flexibility Score: inf
ROOT
ATOM      1  O   UNL     1       2.768  -0.456   9.815  1.00  0.00    -0.462 OA
ENDROOT
BRANCH   1   2
ATOM      2  C   UNL     1       1.758   0.327  10.383  1.00  0.00     0.130 A 
ATOM      3  C   UNL     1      -0.835   4.310  10.130  1.00  0.00     0.138 A 
ATOM      4  C   UNL     1      -1.488   4.048  11.338  1.00  0.00     0.100 A 
ATOM      5  O   UNL     1       0.054   3.439   9.665  1.00  0.00    -0.456 OA
ATOM      6  C   UNL     1      -1.181   2.894  12.056  1.00  0.00     0.197 A 
ATOM      7  C   UNL     1       0.386   2.323  10.305  1.00  0.00     0.146 A 
ATOM      8  O   UNL     1      -1.775   2.698  13.147  1.00  0.00    -0.289 OA
ATOM      9  C   UNL     1      -0.218   1.986  11.548  1.00  0.00     0.107 A 
ATOM     10  C   UNL     1       1.352   1.490   9.734  1.00  0.00     0.094 A 
ATOM     11  C   UNL     1       0.193   0.780  12.196  1.00  0.00     0.134 A 
ATOM     12  C   UNL     1       1.191  -0.015  11.612  1.00  0.00     0.093 A 
BRANCH   3  13
ATOM     13  C   UNL     1      -1.110   5.536   9.349  1.00  0.00     0.021 A 
ATOM     14  C   UNL     1      -0.157   6.567   9.259  1.00  0.00     0.016 A 
ATOM     15  C   UNL     1      -0.417   7.704   8.490  1.00  0.00     0.051 A 
ATOM     16  C   UNL     1      -1.630   7.835   7.803  1.00  0.00     0.157 A 
ATOM     17  C   UNL     1      -2.329   5.671   8.663  1.00  0.00     0.062 A 
ATOM     18  C   UNL     1      -2.593   6.814   7.894  1.00  0.00     0.158 A 
BRANCH  16  19
ATOM     19  O   UNL     1      -1.857   8.980   7.039  1.00  0.00    -0.504 OA
ATOM     20  H   UNL     1      -1.940   8.945   6.030  1.00  0.00     0.293 HD
ENDBRANCH  16  19
BRANCH  18  21
ATOM     21  O   UNL     1      -3.805   6.942   7.218  1.00  0.00    -0.504 OA
ATOM     22  H   UNL     1      -4.043   6.337   6.438  1.00  0.00     0.293 HD
ENDBRANCH  18  21
ENDBRANCH   3  13
BRANCH  11  23
ATOM     23  O   UNL     1      -0.338   0.310  13.402  1.00  0.00    -0.507 OA
ATOM     24  H   UNL     1      -1.193   0.621  13.832  1.00  0.00     0.293 HD
ENDBRANCH  11  23
ENDBRANCH   1   2
BRANCH   1  25
ATOM     25  C   UNL     1       4.131  -0.423  10.254  1.00  0.00     0.339 C 
ATOM     26  C   UNL     1       4.887   0.795   9.700  1.00  0.00     0.214 C 
ATOM     27  O   UNL     1       4.795  -1.622   9.883  1.00  0.00    -0.332 OA
ATOM     28  C   UNL     1       4.917   0.704   8.167  1.00  0.00     0.180 C 
ATOM     29  C   UNL     1       4.791  -1.814   8.473  1.00  0.00     0.179 C 
ATOM     30  C   UNL     1       5.500  -0.656   7.714  1.00  0.00     0.177 C 
BRANCH  26  31
ATOM     31  O   UNL     1       6.201   0.798  10.202  1.00  0.00    -0.384 OA
ATOM     32  H   UNL     1       6.489   1.747  10.264  1.00  0.00     0.211 HD
ENDBRANCH  26  31
BRANCH  28  33
ATOM     33  O   UNL     1       5.665   1.772   7.643  1.00  0.00    -0.387 OA
ATOM     34  H   UNL     1       5.871   2.377   8.405  1.00  0.00     0.211 HD
ENDBRANCH  28  33
BRANCH  29  35
ATOM     35  C   UNL     1       5.401  -3.191   8.151  1.00  0.00     0.191 C 
BRANCH  35  36
ATOM     36  O   UNL     1       6.013  -3.206   6.886  1.00  0.00    -0.394 OA
ATOM     37  H   UNL     1       6.904  -2.776   6.989  1.00  0.00     0.210 HD
ENDBRANCH  35  36
ENDBRANCH  29  35
BRANCH  30  38
ATOM     38  O   UNL     1       6.889  -0.686   7.935  1.00  0.00    -0.387 OA
ATOM     39  H   UNL     1       7.037  -0.316   8.845  1.00  0.00     0.211 HD
ENDBRANCH  30  38
ENDBRANCH   1  25
TORSDOF 11
ENDMDL
