MODEL 1
REMARK VINA RESULT:    -3.907      0.000      0.000
REMARK INTER + INTRA:          -8.810
REMARK INTER:                  -7.333
REMARK INTRA:                  -1.477
REMARK UNBOUND:                -1.477
REMARK SMILES CCCCCCCCC=CCCCCCCCC(=O)[O-]
REMARK SMILES IDX 10 1 9 2 11 3 12 4 13 5 14 6 15 7 16 8 17 9 18 10 19 11
REMARK SMILES IDX 20 12 8 13 7 14 6 15 5 16 4 17 3 18 2 19 1 20
REMARK H PARENT
REMARK Flexibility Score: inf
ROOT
ATOM      1  C   UNL     1      13.830   0.125 -20.927  1.00  0.00    -0.031 C 
ATOM      2  C   UNL     1      13.063   1.223 -20.977  1.00  0.00    -0.031 C 
ENDROOT
BRANCH   1   3
ATOM      3  C   UNL     1      13.232  -1.255 -20.871  1.00  0.00     0.027 C 
BRANCH   3   4
ATOM      4  C   UNL     1      12.191  -1.485 -21.978  1.00  0.00     0.004 C 
BRANCH   4   5
ATOM      5  C   UNL     1      10.793  -1.788 -21.411  1.00  0.00     0.000 C 
BRANCH   5   6
ATOM      6  C   UNL     1      10.770  -1.838 -19.873  1.00  0.00     0.000 C 
BRANCH   6   7
ATOM      7  C   UNL     1       9.928  -0.740 -19.196  1.00  0.00     0.000 C 
BRANCH   7   8
ATOM      8  C   UNL     1      10.534  -0.140 -17.912  1.00  0.00     0.006 C 
BRANCH   8   9
ATOM      9  C   UNL     1      11.500   1.032 -18.166  1.00  0.00     0.053 C 
BRANCH   9  10
ATOM     10  C   UNL     1      12.484   1.214 -17.051  1.00  0.00     0.041 C 
ATOM     11  O   UNL     1      13.365   2.112 -17.123  1.00  0.00    -0.550 OA
ATOM     12  O   UNL     1      12.453   0.370 -15.949  1.00  0.00    -0.550 OA
ENDBRANCH   9  10
ENDBRANCH   8   9
ENDBRANCH   7   8
ENDBRANCH   6   7
ENDBRANCH   5   6
ENDBRANCH   4   5
ENDBRANCH   3   4
ENDBRANCH   1   3
BRANCH   2  13
ATOM     13  C   UNL     1      13.656   2.597 -21.130  1.00  0.00     0.027 C 
BRANCH  13  14
ATOM     14  C   UNL     1      13.003   3.621 -20.183  1.00  0.00     0.004 C 
BRANCH  14  15
ATOM     15  C   UNL     1      13.329   5.089 -20.542  1.00  0.00     0.000 C 
BRANCH  15  16
ATOM     16  C   UNL     1      14.807   5.460 -20.335  1.00  0.00     0.000 C 
BRANCH  16  17
ATOM     17  C   UNL     1      15.508   5.866 -21.643  1.00  0.00    -0.000 C 
BRANCH  17  18
ATOM     18  C   UNL     1      17.032   5.685 -21.576  1.00  0.00    -0.000 C 
BRANCH  18  19
ATOM     19  C   UNL     1      17.621   5.159 -22.894  1.00  0.00    -0.003 C 
ATOM     20  C   UNL     1      16.564   4.423 -23.712  1.00  0.00     0.004 C 
ENDBRANCH  18  19
ENDBRANCH  17  18
ENDBRANCH  16  17
ENDBRANCH  15  16
ENDBRANCH  14  15
ENDBRANCH  13  14
ENDBRANCH   2  13
TORSDOF 15
ENDMDL
MODEL 2
REMARK VINA RESULT:    -3.883      3.327      7.665
REMARK INTER + INTRA:          -8.765
REMARK INTER:                  -7.101
REMARK INTRA:                  -1.664
REMARK UNBOUND:                -1.477
REMARK SMILES CCCCCCCCC=CCCCCCCCC(=O)[O-]
REMARK SMILES IDX 10 1 9 2 11 3 12 4 13 5 14 6 15 7 16 8 17 9 18 10 19 11
REMARK SMILES IDX 20 12 8 13 7 14 6 15 5 16 4 17 3 18 2 19 1 20
REMARK H PARENT
REMARK Flexibility Score: inf
ROOT
ATOM      1  C   UNL     1      13.025   1.068 -21.036  1.00  0.00    -0.031 C 
ATOM      2  C   UNL     1      13.795  -0.021 -20.911  1.00  0.00    -0.031 C 
ENDROOT
BRANCH   1   3
ATOM      3  C   UNL     1      13.612   2.454 -21.045  1.00  0.00     0.027 C 
BRANCH   3   4
ATOM      4  C   UNL     1      12.905   3.393 -20.055  1.00  0.00     0.004 C 
BRANCH   4   5
ATOM      5  C   UNL     1      13.082   4.875 -20.427  1.00  0.00     0.000 C 
BRANCH   5   6
ATOM      6  C   UNL     1      14.533   5.363 -20.266  1.00  0.00     0.000 C 
BRANCH   6   7
ATOM      7  C   UNL     1      15.125   6.073 -21.497  1.00  0.00     0.000 C 
BRANCH   7   8
ATOM      8  C   UNL     1      16.501   5.555 -21.961  1.00  0.00     0.006 C 
BRANCH   8   9
ATOM      9  C   UNL     1      16.485   4.908 -23.358  1.00  0.00     0.053 C 
BRANCH   9  10
ATOM     10  C   UNL     1      17.584   5.420 -24.238  1.00  0.00     0.041 C 
ATOM     11  O   UNL     1      17.424   5.476 -25.486  1.00  0.00    -0.550 OA
ATOM     12  O   UNL     1      18.800   5.801 -23.684  1.00  0.00    -0.550 OA
ENDBRANCH   9  10
ENDBRANCH   8   9
ENDBRANCH   7   8
ENDBRANCH   6   7
ENDBRANCH   5   6
ENDBRANCH   4   5
ENDBRANCH   3   4
ENDBRANCH   1   3
BRANCH   2  13
ATOM     13  C   UNL     1      13.222  -1.410 -20.996  1.00  0.00     0.027 C 
BRANCH  13  14
ATOM     14  C   UNL     1      11.690  -1.400 -21.152  1.00  0.00     0.004 C 
BRANCH  14  15
ATOM     15  C   UNL     1      10.937  -1.834 -19.874  1.00  0.00     0.000 C 
BRANCH  15  16
ATOM     16  C   UNL     1       9.973  -0.764 -19.333  1.00  0.00     0.000 C 
BRANCH  16  17
ATOM     17  C   UNL     1      10.342  -0.292 -17.917  1.00  0.00    -0.000 C 
BRANCH  17  18
ATOM     18  C   UNL     1      11.414   0.808 -17.922  1.00  0.00    -0.000 C 
BRANCH  18  19
ATOM     19  C   UNL     1      12.245   0.828 -16.630  1.00  0.00    -0.003 C 
ATOM     20  C   UNL     1      13.550   1.593 -16.830  1.00  0.00     0.004 C 
ENDBRANCH  18  19
ENDBRANCH  17  18
ENDBRANCH  16  17
ENDBRANCH  15  16
ENDBRANCH  14  15
ENDBRANCH  13  14
ENDBRANCH   2  13
TORSDOF 15
ENDMDL
MODEL 3
REMARK VINA RESULT:    -3.573      3.396      7.653
REMARK INTER + INTRA:          -8.183
REMARK INTER:                  -6.377
REMARK INTRA:                  -1.806
REMARK UNBOUND:                -1.477
REMARK SMILES CCCCCCCCC=CCCCCCCCC(=O)[O-]
REMARK SMILES IDX 10 1 9 2 11 3 12 4 13 5 14 6 15 7 16 8 17 9 18 10 19 11
REMARK SMILES IDX 20 12 8 13 7 14 6 15 5 16 4 17 3 18 2 19 1 20
REMARK H PARENT
REMARK Flexibility Score: inf
ROOT
ATOM      1  C   UNL     1      12.322   2.123 -18.649  1.00  0.00    -0.031 C 
ATOM      2  C   UNL     1      12.487   1.322 -17.587  1.00  0.00    -0.031 C 
ENDROOT
BRANCH   1   3
ATOM      3  C   UNL     1      13.255   3.271 -18.925  1.00  0.00     0.027 C 
BRANCH   3   4
ATOM      4  C   UNL     1      13.221   3.709 -20.398  1.00  0.00     0.004 C 
BRANCH   4   5
ATOM      5  C   UNL     1      12.897   5.204 -20.555  1.00  0.00     0.000 C 
BRANCH   5   6
ATOM      6  C   UNL     1      14.156   6.089 -20.584  1.00  0.00     0.000 C 
BRANCH   6   7
ATOM      7  C   UNL     1      15.418   5.413 -21.151  1.00  0.00     0.000 C 
BRANCH   7   8
ATOM      8  C   UNL     1      15.974   6.033 -22.448  1.00  0.00     0.006 C 
BRANCH   8   9
ATOM      9  C   UNL     1      16.550   5.002 -23.436  1.00  0.00     0.053 C 
BRANCH   9  10
ATOM     10  C   UNL     1      17.717   5.539 -24.207  1.00  0.00     0.041 C 
ATOM     11  O   UNL     1      17.614   5.757 -25.443  1.00  0.00    -0.550 OA
ATOM     12  O   UNL     1      18.930   5.763 -23.569  1.00  0.00    -0.550 OA
ENDBRANCH   9  10
ENDBRANCH   8   9
ENDBRANCH   7   8
ENDBRANCH   6   7
ENDBRANCH   5   6
ENDBRANCH   4   5
ENDBRANCH   3   4
ENDBRANCH   1   3
BRANCH   2  13
ATOM     13  C   UNL     1      11.614   0.117 -17.360  1.00  0.00     0.027 C 
BRANCH  13  14
ATOM     14  C   UNL     1      10.460   0.035 -18.377  1.00  0.00     0.004 C 
BRANCH  14  15
ATOM     15  C   UNL     1      10.082  -1.413 -18.764  1.00  0.00     0.000 C 
BRANCH  15  16
ATOM     16  C   UNL     1      10.106  -1.670 -20.281  1.00  0.00     0.000 C 
BRANCH  16  17
ATOM     17  C   UNL     1      11.533  -1.753 -20.848  1.00  0.00    -0.000 C 
BRANCH  17  18
ATOM     18  C   UNL     1      11.883  -0.553 -21.742  1.00  0.00    -0.000 C 
BRANCH  18  19
ATOM     19  C   UNL     1      13.227   0.089 -21.367  1.00  0.00    -0.003 C 
ATOM     20  C   UNL     1      13.954  -0.740 -20.312  1.00  0.00     0.004 C 
ENDBRANCH  18  19
ENDBRANCH  17  18
ENDBRANCH  16  17
ENDBRANCH  15  16
ENDBRANCH  14  15
ENDBRANCH  13  14
ENDBRANCH   2  13
TORSDOF 15
ENDMDL
MODEL 4
REMARK VINA RESULT:    -3.555      2.207      3.686
REMARK INTER + INTRA:          -8.149
REMARK INTER:                  -7.166
REMARK INTRA:                  -0.983
REMARK UNBOUND:                -1.477
REMARK SMILES CCCCCCCCC=CCCCCCCCC(=O)[O-]
REMARK SMILES IDX 10 1 9 2 11 3 12 4 13 5 14 6 15 7 16 8 17 9 18 10 19 11
REMARK SMILES IDX 20 12 8 13 7 14 6 15 5 16 4 17 3 18 2 19 1 20
REMARK H PARENT
REMARK Flexibility Score: inf
ROOT
ATOM      1  C   UNL     1      12.836   2.949 -18.889  1.00  0.00    -0.031 C 
ATOM      2  C   UNL     1      13.194   3.438 -20.084  1.00  0.00    -0.031 C 
ENDROOT
BRANCH   1   3
ATOM      3  C   UNL     1      12.840   1.470 -18.606  1.00  0.00     0.027 C 
BRANCH   3   4
ATOM      4  C   UNL     1      12.407   1.151 -17.166  1.00  0.00     0.004 C 
BRANCH   4   5
ATOM      5  C   UNL     1      11.216   0.179 -17.117  1.00  0.00     0.000 C 
BRANCH   5   6
ATOM      6  C   UNL     1      10.426   0.133 -18.437  1.00  0.00     0.000 C 
BRANCH   6   7
ATOM      7  C   UNL     1       9.982  -1.271 -18.886  1.00  0.00     0.000 C 
BRANCH   7   8
ATOM      8  C   UNL     1      10.511  -1.724 -20.260  1.00  0.00     0.006 C 
BRANCH   8   9
ATOM      9  C   UNL     1      12.042  -1.633 -20.401  1.00  0.00     0.053 C 
BRANCH   9  10
ATOM     10  C   UNL     1      12.460  -0.935 -21.659  1.00  0.00     0.041 C 
ATOM     11  O   UNL     1      12.708   0.300 -21.647  1.00  0.00    -0.550 OA
ATOM     12  O   UNL     1      12.542  -1.640 -22.853  1.00  0.00    -0.550 OA
ENDBRANCH   9  10
ENDBRANCH   8   9
ENDBRANCH   7   8
ENDBRANCH   6   7
ENDBRANCH   5   6
ENDBRANCH   4   5
ENDBRANCH   3   4
ENDBRANCH   1   3
BRANCH   2  13
ATOM     13  C   UNL     1      13.281   4.918 -20.340  1.00  0.00     0.027 C 
BRANCH  13  14
ATOM     14  C   UNL     1      14.738   5.413 -20.406  1.00  0.00     0.004 C 
BRANCH  14  15
ATOM     15  C   UNL     1      15.088   6.123 -21.734  1.00  0.00     0.000 C 
BRANCH  15  16
ATOM     16  C   UNL     1      16.578   6.031 -22.106  1.00  0.00     0.000 C 
BRANCH  16  17
ATOM     17  C   UNL     1      16.815   5.294 -23.435  1.00  0.00    -0.000 C 
BRANCH  17  18
ATOM     18  C   UNL     1      18.178   5.629 -24.060  1.00  0.00    -0.000 C 
BRANCH  18  19
ATOM     19  C   UNL     1      19.226   6.026 -23.011  1.00  0.00    -0.003 C 
ATOM     20  C   UNL     1      20.637   5.705 -23.496  1.00  0.00     0.004 C 
ENDBRANCH  18  19
ENDBRANCH  17  18
ENDBRANCH  16  17
ENDBRANCH  15  16
ENDBRANCH  14  15
ENDBRANCH  13  14
ENDBRANCH   2  13
TORSDOF 15
ENDMDL
MODEL 5
REMARK VINA RESULT:    -3.492      1.666      3.029
REMARK INTER + INTRA:          -8.032
REMARK INTER:                  -6.562
REMARK INTRA:                  -1.470
REMARK UNBOUND:                -1.477
REMARK SMILES CCCCCCCCC=CCCCCCCCC(=O)[O-]
REMARK SMILES IDX 10 1 9 2 11 3 12 4 13 5 14 6 15 7 16 8 17 9 18 10 19 11
REMARK SMILES IDX 20 12 8 13 7 14 6 15 5 16 4 17 3 18 2 19 1 20
REMARK H PARENT
REMARK Flexibility Score: inf
ROOT
ATOM      1  C   UNL     1      12.413   2.041 -18.853  1.00  0.00    -0.031 C 
ATOM      2  C   UNL     1      13.260   3.036 -19.151  1.00  0.00    -0.031 C 
ENDROOT
BRANCH   1   3
ATOM      3  C   UNL     1      12.425   1.369 -17.506  1.00  0.00     0.027 C 
BRANCH   3   4
ATOM      4  C   UNL     1      11.374   0.253 -17.402  1.00  0.00     0.004 C 
BRANCH   4   5
ATOM      5  C   UNL     1      10.632   0.025 -18.730  1.00  0.00     0.000 C 
BRANCH   5   6
ATOM      6  C   UNL     1      10.174  -1.433 -18.917  1.00  0.00     0.000 C 
BRANCH   6   7
ATOM      7  C   UNL     1      10.293  -1.978 -20.353  1.00  0.00     0.000 C 
BRANCH   7   8
ATOM      8  C   UNL     1      11.060  -1.077 -21.340  1.00  0.00     0.006 C 
BRANCH   8   9
ATOM      9  C   UNL     1      12.517  -1.513 -21.580  1.00  0.00     0.053 C 
BRANCH   9  10
ATOM     10  C   UNL     1      13.501  -0.646 -20.855  1.00  0.00     0.041 C 
ATOM     11  O   UNL     1      13.939   0.404 -21.395  1.00  0.00    -0.550 OA
ATOM     12  O   UNL     1      13.963  -1.016 -19.598  1.00  0.00    -0.550 OA
ENDBRANCH   9  10
ENDBRANCH   8   9
ENDBRANCH   7   8
ENDBRANCH   6   7
ENDBRANCH   5   6
ENDBRANCH   4   5
ENDBRANCH   3   4
ENDBRANCH   1   3
BRANCH   2  13
ATOM     13  C   UNL     1      13.187   3.772 -20.461  1.00  0.00     0.027 C 
BRANCH  13  14
ATOM     14  C   UNL     1      13.045   5.293 -20.268  1.00  0.00     0.004 C 
BRANCH  14  15
ATOM     15  C   UNL     1      14.098   6.115 -21.046  1.00  0.00     0.000 C 
BRANCH  15  16
ATOM     16  C   UNL     1      15.529   5.952 -20.505  1.00  0.00     0.000 C 
BRANCH  16  17
ATOM     17  C   UNL     1      16.559   5.685 -21.615  1.00  0.00    -0.000 C 
BRANCH  17  18
ATOM     18  C   UNL     1      15.920   5.631 -23.012  1.00  0.00    -0.000 C 
BRANCH  18  19
ATOM     19  C   UNL     1      16.769   4.837 -24.016  1.00  0.00    -0.003 C 
ATOM     20  C   UNL     1      17.522   5.772 -24.957  1.00  0.00     0.004 C 
ENDBRANCH  18  19
ENDBRANCH  17  18
ENDBRANCH  16  17
ENDBRANCH  15  16
ENDBRANCH  14  15
ENDBRANCH  13  14
ENDBRANCH   2  13
TORSDOF 15
ENDMDL
MODEL 6
REMARK VINA RESULT:    -3.491      3.327      7.530
REMARK INTER + INTRA:          -8.030
REMARK INTER:                  -6.306
REMARK INTRA:                  -1.724
REMARK UNBOUND:                -1.477
REMARK SMILES CCCCCCCCC=CCCCCCCCC(=O)[O-]
REMARK SMILES IDX 10 1 9 2 11 3 12 4 13 5 14 6 15 7 16 8 17 9 18 10 19 11
REMARK SMILES IDX 20 12 8 13 7 14 6 15 5 16 4 17 3 18 2 19 1 20
REMARK H PARENT
REMARK Flexibility Score: inf
ROOT
ATOM      1  C   UNL     1      12.246   2.014 -18.659  1.00  0.00    -0.031 C 
ATOM      2  C   UNL     1      12.291   1.180 -17.610  1.00  0.00    -0.031 C 
ENDROOT
BRANCH   1   3
ATOM      3  C   UNL     1      13.293   3.074 -18.871  1.00  0.00     0.027 C 
BRANCH   3   4
ATOM      4  C   UNL     1      13.248   3.661 -20.291  1.00  0.00     0.004 C 
BRANCH   4   5
ATOM      5  C   UNL     1      12.718   5.106 -20.308  1.00  0.00     0.000 C 
BRANCH   5   6
ATOM      6  C   UNL     1      13.757   6.117 -20.827  1.00  0.00     0.000 C 
BRANCH   6   7
ATOM      7  C   UNL     1      15.226   5.678 -20.684  1.00  0.00     0.000 C 
BRANCH   7   8
ATOM      8  C   UNL     1      16.026   5.610 -21.999  1.00  0.00     0.006 C 
BRANCH   8   9
ATOM      9  C   UNL     1      17.522   5.936 -21.837  1.00  0.00     0.053 C 
BRANCH   9  10
ATOM     10  C   UNL     1      18.325   5.554 -23.043  1.00  0.00     0.041 C 
ATOM     11  O   UNL     1      19.567   5.368 -22.945  1.00  0.00    -0.550 OA
ATOM     12  O   UNL     1      17.709   5.440 -24.283  1.00  0.00    -0.550 OA
ENDBRANCH   9  10
ENDBRANCH   8   9
ENDBRANCH   7   8
ENDBRANCH   6   7
ENDBRANCH   5   6
ENDBRANCH   4   5
ENDBRANCH   3   4
ENDBRANCH   1   3
BRANCH   2  13
ATOM     13  C   UNL     1      11.301   0.059 -17.446  1.00  0.00     0.027 C 
BRANCH  13  14
ATOM     14  C   UNL     1      10.309  -0.019 -18.621  1.00  0.00     0.004 C 
BRANCH  14  15
ATOM     15  C   UNL     1       9.853  -1.458 -18.949  1.00  0.00     0.000 C 
BRANCH  15  16
ATOM     16  C   UNL     1      10.185  -1.897 -20.386  1.00  0.00     0.000 C 
BRANCH  16  17
ATOM     17  C   UNL     1      11.689  -1.821 -20.698  1.00  0.00    -0.000 C 
BRANCH  17  18
ATOM     18  C   UNL     1      12.017  -0.765 -21.765  1.00  0.00    -0.000 C 
BRANCH  18  19
ATOM     19  C   UNL     1      13.212   0.117 -21.372  1.00  0.00    -0.003 C 
ATOM     20  C   UNL     1      14.130  -0.608 -20.393  1.00  0.00     0.004 C 
ENDBRANCH  18  19
ENDBRANCH  17  18
ENDBRANCH  16  17
ENDBRANCH  15  16
ENDBRANCH  14  15
ENDBRANCH  13  14
ENDBRANCH   2  13
TORSDOF 15
ENDMDL
MODEL 7
REMARK VINA RESULT:    -3.107      2.722      6.829
REMARK INTER + INTRA:          -7.309
REMARK INTER:                  -6.365
REMARK INTRA:                  -0.944
REMARK UNBOUND:                -1.477
REMARK SMILES CCCCCCCCC=CCCCCCCCC(=O)[O-]
REMARK SMILES IDX 10 1 9 2 11 3 12 4 13 5 14 6 15 7 16 8 17 9 18 10 19 11
REMARK SMILES IDX 20 12 8 13 7 14 6 15 5 16 4 17 3 18 2 19 1 20
REMARK H PARENT
REMARK Flexibility Score: inf
ROOT
ATOM      1  C   UNL     1      12.995  -0.899 -21.354  1.00  0.00    -0.031 C 
ATOM      2  C   UNL     1      11.763  -0.847 -21.879  1.00  0.00    -0.031 C 
ENDROOT
BRANCH   1   3
ATOM      3  C   UNL     1      13.777   0.351 -21.048  1.00  0.00     0.027 C 
BRANCH   3   4
ATOM      4  C   UNL     1      12.885   1.477 -20.500  1.00  0.00     0.004 C 
BRANCH   4   5
ATOM      5  C   UNL     1      13.314   2.863 -21.011  1.00  0.00     0.000 C 
BRANCH   5   6
ATOM      6  C   UNL     1      13.296   3.938 -19.909  1.00  0.00     0.000 C 
BRANCH   6   7
ATOM      7  C   UNL     1      13.045   5.375 -20.401  1.00  0.00     0.000 C 
BRANCH   7   8
ATOM      8  C   UNL     1      14.178   5.991 -21.246  1.00  0.00     0.006 C 
BRANCH   8   9
ATOM      9  C   UNL     1      15.564   5.918 -20.580  1.00  0.00     0.053 C 
BRANCH   9  10
ATOM     10  C   UNL     1      16.660   5.649 -21.566  1.00  0.00     0.041 C 
ATOM     11  O   UNL     1      17.841   6.007 -21.315  1.00  0.00    -0.550 OA
ATOM     12  O   UNL     1      16.371   5.036 -22.778  1.00  0.00    -0.550 OA
ENDBRANCH   9  10
ENDBRANCH   8   9
ENDBRANCH   7   8
ENDBRANCH   6   7
ENDBRANCH   5   6
ENDBRANCH   4   5
ENDBRANCH   3   4
ENDBRANCH   1   3
BRANCH   2  13
ATOM     13  C   UNL     1      10.943  -2.090 -22.097  1.00  0.00     0.027 C 
BRANCH  13  14
ATOM     14  C   UNL     1       9.882  -2.288 -20.999  1.00  0.00     0.004 C 
BRANCH  14  15
ATOM     15  C   UNL     1      10.367  -1.878 -19.590  1.00  0.00     0.000 C 
BRANCH  15  16
ATOM     16  C   UNL     1       9.883  -0.484 -19.154  1.00  0.00     0.000 C 
BRANCH  16  17
ATOM     17  C   UNL     1      10.410  -0.079 -17.767  1.00  0.00    -0.000 C 
BRANCH  17  18
ATOM     18  C   UNL     1      11.690   0.767 -17.846  1.00  0.00    -0.000 C 
BRANCH  18  19
ATOM     19  C   UNL     1      12.525   0.694 -16.559  1.00  0.00    -0.003 C 
ATOM     20  C   UNL     1      13.612   1.764 -16.549  1.00  0.00     0.004 C 
ENDBRANCH  18  19
ENDBRANCH  17  18
ENDBRANCH  16  17
ENDBRANCH  15  16
ENDBRANCH  14  15
ENDBRANCH  13  14
ENDBRANCH   2  13
TORSDOF 15
ENDMDL
MODEL 8
REMARK VINA RESULT:    -3.055      2.966      7.311
REMARK INTER + INTRA:          -7.212
REMARK INTER:                  -5.532
REMARK INTRA:                  -1.679
REMARK UNBOUND:                -1.477
REMARK SMILES CCCCCCCCC=CCCCCCCCC(=O)[O-]
REMARK SMILES IDX 10 1 9 2 11 3 12 4 13 5 14 6 15 7 16 8 17 9 18 10 19 11
REMARK SMILES IDX 20 12 8 13 7 14 6 15 5 16 4 17 3 18 2 19 1 20
REMARK H PARENT
REMARK Flexibility Score: inf
ROOT
ATOM      1  C   UNL     1      12.320   0.927 -17.884  1.00  0.00    -0.031 C 
ATOM      2  C   UNL     1      11.036   0.824 -18.257  1.00  0.00    -0.031 C 
ENDROOT
BRANCH   1   3
ATOM      3  C   UNL     1      13.079   2.220 -18.016  1.00  0.00     0.027 C 
BRANCH   3   4
ATOM      4  C   UNL     1      12.509   3.120 -19.123  1.00  0.00     0.004 C 
BRANCH   4   5
ATOM      5  C   UNL     1      13.592   3.591 -20.109  1.00  0.00     0.000 C 
BRANCH   5   6
ATOM      6  C   UNL     1      13.553   5.109 -20.360  1.00  0.00     0.000 C 
BRANCH   6   7
ATOM      7  C   UNL     1      14.930   5.789 -20.480  1.00  0.00     0.000 C 
BRANCH   7   8
ATOM      8  C   UNL     1      15.553   5.776 -21.889  1.00  0.00     0.006 C 
BRANCH   8   9
ATOM      9  C   UNL     1      17.080   5.582 -21.895  1.00  0.00     0.053 C 
BRANCH   9  10
ATOM     10  C   UNL     1      17.598   5.158 -23.235  1.00  0.00     0.041 C 
ATOM     11  O   UNL     1      16.906   4.412 -23.976  1.00  0.00    -0.550 OA
ATOM     12  O   UNL     1      18.862   5.556 -23.651  1.00  0.00    -0.550 OA
ENDBRANCH   9  10
ENDBRANCH   8   9
ENDBRANCH   7   8
ENDBRANCH   6   7
ENDBRANCH   5   6
ENDBRANCH   4   5
ENDBRANCH   3   4
ENDBRANCH   1   3
BRANCH   2  13
ATOM     13  C   UNL     1      10.248  -0.439 -18.039  1.00  0.00     0.027 C 
BRANCH  13  14
ATOM     14  C   UNL     1      10.606  -1.534 -19.060  1.00  0.00     0.004 C 
BRANCH  14  15
ATOM     15  C   UNL     1       9.946  -1.328 -20.443  1.00  0.00     0.000 C 
BRANCH  15  16
ATOM     16  C   UNL     1      10.557  -2.201 -21.553  1.00  0.00     0.000 C 
BRANCH  16  17
ATOM     17  C   UNL     1      11.806  -1.568 -22.188  1.00  0.00    -0.000 C 
BRANCH  17  18
ATOM     18  C   UNL     1      12.018  -0.110 -21.749  1.00  0.00    -0.000 C 
BRANCH  18  19
ATOM     19  C   UNL     1      13.389   0.114 -21.095  1.00  0.00    -0.003 C 
ATOM     20  C   UNL     1      13.968  -1.197 -20.572  1.00  0.00     0.004 C 
ENDBRANCH  18  19
ENDBRANCH  17  18
ENDBRANCH  16  17
ENDBRANCH  15  16
ENDBRANCH  14  15
ENDBRANCH  13  14
ENDBRANCH   2  13
TORSDOF 15
ENDMDL
MODEL 9
REMARK VINA RESULT:    -2.489      4.283      9.017
REMARK INTER + INTRA:          -6.149
REMARK INTER:                  -5.695
REMARK INTRA:                  -0.454
REMARK UNBOUND:                -1.477
REMARK SMILES CCCCCCCCC=CCCCCCCCC(=O)[O-]
REMARK SMILES IDX 10 1 9 2 11 3 12 4 13 5 14 6 15 7 16 8 17 9 18 10 19 11
REMARK SMILES IDX 20 12 8 13 7 14 6 15 5 16 4 17 3 18 2 19 1 20
REMARK H PARENT
REMARK Flexibility Score: inf
ROOT
ATOM      1  C   UNL     1      13.423   4.265 -20.489  1.00  0.00    -0.031 C 
ATOM      2  C   UNL     1      13.010   3.511 -19.460  1.00  0.00    -0.031 C 
ENDROOT
BRANCH   1   3
ATOM      3  C   UNL     1      13.991   5.643 -20.281  1.00  0.00     0.027 C 
BRANCH   3   4
ATOM      4  C   UNL     1      15.433   5.763 -20.799  1.00  0.00     0.004 C 
BRANCH   4   5
ATOM      5  C   UNL     1      15.488   6.060 -22.308  1.00  0.00     0.000 C 
BRANCH   5   6
ATOM      6  C   UNL     1      16.646   5.335 -23.018  1.00  0.00     0.000 C 
BRANCH   6   7
ATOM      7  C   UNL     1      17.308   6.125 -24.162  1.00  0.00     0.000 C 
BRANCH   7   8
ATOM      8  C   UNL     1      17.822   5.275 -25.340  1.00  0.00     0.006 C 
BRANCH   8   9
ATOM      9  C   UNL     1      18.426   6.101 -26.490  1.00  0.00     0.053 C 
BRANCH   9  10
ATOM     10  C   UNL     1      19.923   6.050 -26.507  1.00  0.00     0.041 C 
ATOM     11  O   UNL     1      20.546   6.063 -27.602  1.00  0.00    -0.550 OA
ATOM     12  O   UNL     1      20.631   5.950 -25.316  1.00  0.00    -0.550 OA
ENDBRANCH   9  10
ENDBRANCH   8   9
ENDBRANCH   7   8
ENDBRANCH   6   7
ENDBRANCH   5   6
ENDBRANCH   4   5
ENDBRANCH   3   4
ENDBRANCH   1   3
BRANCH   2  13
ATOM     13  C   UNL     1      12.530   2.099 -19.656  1.00  0.00     0.027 C 
BRANCH  13  14
ATOM     14  C   UNL     1      12.428   1.329 -18.326  1.00  0.00     0.004 C 
BRANCH  14  15
ATOM     15  C   UNL     1      11.273   0.301 -18.295  1.00  0.00     0.000 C 
BRANCH  15  16
ATOM     16  C   UNL     1      11.379  -0.777 -19.387  1.00  0.00     0.000 C 
BRANCH  16  17
ATOM     17  C   UNL     1      12.825  -1.012 -19.854  1.00  0.00    -0.000 C 
BRANCH  17  18
ATOM     18  C   UNL     1      12.902  -1.527 -21.299  1.00  0.00    -0.000 C 
BRANCH  18  19
ATOM     19  C   UNL     1      11.768  -0.982 -22.180  1.00  0.00    -0.003 C 
ATOM     20  C   UNL     1      11.006  -2.118 -22.856  1.00  0.00     0.004 C 
ENDBRANCH  18  19
ENDBRANCH  17  18
ENDBRANCH  16  17
ENDBRANCH  15  16
ENDBRANCH  14  15
ENDBRANCH  13  14
ENDBRANCH   2  13
TORSDOF 15
ENDMDL
