MODEL 1
REMARK VINA RESULT:    -5.611      0.000      0.000
REMARK INTER + INTRA:          -7.077
REMARK INTER:                  -6.760
REMARK INTRA:                  -0.317
REMARK UNBOUND:                -0.317
REMARK SMILES O=c1c(O)c(-c2ccc(O)c(O)c2)oc2cc(O)cc(O)c12
REMARK SMILES IDX 5 1 3 2 2 3 1 4 22 5 20 6 19 7 17 8 16 9 15 10 14 11 6 12
REMARK SMILES IDX 7 13 8 14 9 15 13 16 11 17 10 18 12 20 4 22 21 24 18 26
REMARK H PARENT 10 19 12 21 4 23 21 25 18 27
REMARK Flexibility Score: inf
ROOT
ATOM      1  C   UNL     1     165.752  27.606  -5.044  1.00  0.00     0.180 A 
ATOM      2  C   UNL     1     164.666  27.177  -5.827  1.00  0.00     0.208 A 
ATOM      3  C   UNL     1     163.832  26.161  -5.335  1.00  0.00     0.238 A 
ATOM      4  O   UNL     1     162.893  25.744  -6.063  1.00  0.00    -0.285 OA
ATOM      5  C   UNL     1     164.083  25.598  -4.060  1.00  0.00     0.111 A 
ATOM      6  C   UNL     1     163.279  24.592  -3.446  1.00  0.00     0.134 A 
ATOM      7  C   UNL     1     163.697  24.015  -2.240  1.00  0.00     0.093 A 
ATOM      8  C   UNL     1     164.854  24.455  -1.594  1.00  0.00     0.123 A 
ATOM      9  C   UNL     1     165.614  25.478  -2.157  1.00  0.00     0.094 A 
ATOM     10  C   UNL     1     165.243  26.048  -3.377  1.00  0.00     0.146 A 
ATOM     11  O   UNL     1     166.000  27.013  -3.883  1.00  0.00    -0.452 OA
ENDROOT
BRANCH   1  12
ATOM     12  C   UNL     1     166.661  28.689  -5.485  1.00  0.00     0.025 A 
ATOM     13  C   UNL     1     167.852  28.409  -6.177  1.00  0.00     0.016 A 
ATOM     14  C   UNL     1     168.682  29.449  -6.603  1.00  0.00     0.051 A 
ATOM     15  C   UNL     1     168.329  30.782  -6.358  1.00  0.00     0.157 A 
ATOM     16  C   UNL     1     166.301  30.027  -5.259  1.00  0.00     0.062 A 
ATOM     17  C   UNL     1     167.131  31.072  -5.685  1.00  0.00     0.158 A 
BRANCH  15  18
ATOM     18  O   UNL     1     169.160  31.817  -6.783  1.00  0.00    -0.504 OA
ATOM     19  H   UNL     1     168.810  32.584  -7.344  1.00  0.00     0.293 HD
ENDBRANCH  15  18
BRANCH  17  20
ATOM     20  O   UNL     1     166.747  32.388  -5.431  1.00  0.00    -0.504 OA
ATOM     21  H   UNL     1     167.147  33.172  -5.932  1.00  0.00     0.293 HD
ENDBRANCH  17  20
ENDBRANCH   1  12
BRANCH   2  22
ATOM     22  O   UNL     1     164.448  27.731  -7.092  1.00  0.00    -0.502 OA
ATOM     23  H   UNL     1     164.179  28.698  -7.223  1.00  0.00     0.293 HD
ENDBRANCH   2  22
BRANCH   6  24
ATOM     24  O   UNL     1     162.058  24.146  -3.960  1.00  0.00    -0.507 OA
ATOM     25  H   UNL     1     161.615  24.514  -4.789  1.00  0.00     0.293 HD
ENDBRANCH   6  24
BRANCH   8  26
ATOM     26  O   UNL     1     165.254  23.887  -0.387  1.00  0.00    -0.508 OA
ATOM     27  H   UNL     1     166.097  24.188   0.088  1.00  0.00     0.293 HD
ENDBRANCH   8  26
TORSDOF 6
ENDMDL
MODEL 2
REMARK VINA RESULT:    -5.450      1.709      7.271
REMARK INTER + INTRA:          -6.883
REMARK INTER:                  -6.593
REMARK INTRA:                  -0.290
REMARK UNBOUND:                -0.317
REMARK SMILES O=c1c(O)c(-c2ccc(O)c(O)c2)oc2cc(O)cc(O)c12
REMARK SMILES IDX 5 1 3 2 2 3 1 4 22 5 20 6 19 7 17 8 16 9 15 10 14 11 6 12
REMARK SMILES IDX 7 13 8 14 9 15 13 16 11 17 10 18 12 20 4 22 21 24 18 26
REMARK H PARENT 10 19 12 21 4 23 21 25 18 27
REMARK Flexibility Score: inf
ROOT
ATOM      1  C   UNL     1     165.964  28.381  -5.404  1.00  0.00     0.180 A 
ATOM      2  C   UNL     1     167.319  28.227  -5.743  1.00  0.00     0.208 A 
ATOM      3  C   UNL     1     168.020  29.328  -6.258  1.00  0.00     0.238 A 
ATOM      4  O   UNL     1     169.218  29.171  -6.611  1.00  0.00    -0.285 OA
ATOM      5  C   UNL     1     167.363  30.573  -6.413  1.00  0.00     0.111 A 
ATOM      6  C   UNL     1     167.988  31.765  -6.888  1.00  0.00     0.134 A 
ATOM      7  C   UNL     1     167.208  32.905  -7.125  1.00  0.00     0.093 A 
ATOM      8  C   UNL     1     165.841  32.914  -6.841  1.00  0.00     0.123 A 
ATOM      9  C   UNL     1     165.235  31.773  -6.322  1.00  0.00     0.094 A 
ATOM     10  C   UNL     1     165.977  30.610  -6.109  1.00  0.00     0.146 A 
ATOM     11  O   UNL     1     165.358  29.542  -5.622  1.00  0.00    -0.452 OA
ENDROOT
BRANCH   1  12
ATOM     12  C   UNL     1     165.164  27.273  -4.831  1.00  0.00     0.025 A 
ATOM     13  C   UNL     1     164.633  26.257  -5.645  1.00  0.00     0.016 A 
ATOM     14  C   UNL     1     163.903  25.208  -5.079  1.00  0.00     0.051 A 
ATOM     15  C   UNL     1     163.704  25.151  -3.695  1.00  0.00     0.157 A 
ATOM     16  C   UNL     1     164.980  27.200  -3.441  1.00  0.00     0.062 A 
ATOM     17  C   UNL     1     164.248  26.151  -2.871  1.00  0.00     0.158 A 
BRANCH  15  18
ATOM     18  O   UNL     1     162.973  24.105  -3.134  1.00  0.00    -0.504 OA
ATOM     19  H   UNL     1     161.991  24.205  -2.907  1.00  0.00     0.293 HD
ENDBRANCH  15  18
BRANCH  17  20
ATOM     20  O   UNL     1     164.074  26.120  -1.488  1.00  0.00    -0.504 OA
ATOM     21  H   UNL     1     163.607  26.865  -0.988  1.00  0.00     0.293 HD
ENDBRANCH  17  20
ENDBRANCH   1  12
BRANCH   2  22
ATOM     22  O   UNL     1     167.943  26.984  -5.603  1.00  0.00    -0.502 OA
ATOM     23  H   UNL     1     168.940  26.890  -5.453  1.00  0.00     0.293 HD
ENDBRANCH   2  22
BRANCH   6  24
ATOM     24  O   UNL     1     169.361  31.891  -7.115  1.00  0.00    -0.507 OA
ATOM     25  H   UNL     1     169.774  32.188  -7.987  1.00  0.00     0.293 HD
ENDBRANCH   6  24
BRANCH   8  26
ATOM     26  O   UNL     1     165.077  34.057  -7.065  1.00  0.00    -0.508 OA
ATOM     27  H   UNL     1     164.273  34.279  -6.489  1.00  0.00     0.293 HD
ENDBRANCH   8  26
TORSDOF 6
ENDMDL
MODEL 3
REMARK VINA RESULT:    -5.191      1.524      7.274
REMARK INTER + INTRA:          -6.570
REMARK INTER:                  -6.297
REMARK INTRA:                  -0.273
REMARK UNBOUND:                -0.317
REMARK SMILES O=c1c(O)c(-c2ccc(O)c(O)c2)oc2cc(O)cc(O)c12
REMARK SMILES IDX 5 1 3 2 2 3 1 4 22 5 20 6 19 7 17 8 16 9 15 10 14 11 6 12
REMARK SMILES IDX 7 13 8 14 9 15 13 16 11 17 10 18 12 20 4 22 21 24 18 26
REMARK H PARENT 10 19 12 21 4 23 21 25 18 27
REMARK Flexibility Score: inf
ROOT
ATOM      1  C   UNL     1     166.037  28.139  -5.273  1.00  0.00     0.180 A 
ATOM      2  C   UNL     1     167.373  27.882  -5.629  1.00  0.00     0.208 A 
ATOM      3  C   UNL     1     168.140  28.918  -6.183  1.00  0.00     0.238 A 
ATOM      4  O   UNL     1     169.318  28.667  -6.551  1.00  0.00    -0.285 OA
ATOM      5  C   UNL     1     167.571  30.202  -6.358  1.00  0.00     0.111 A 
ATOM      6  C   UNL     1     168.269  31.335  -6.873  1.00  0.00     0.134 A 
ATOM      7  C   UNL     1     167.568  32.522  -7.125  1.00  0.00     0.093 A 
ATOM      8  C   UNL     1     166.210  32.635  -6.820  1.00  0.00     0.123 A 
ATOM      9  C   UNL     1     165.534  31.553  -6.263  1.00  0.00     0.094 A 
ATOM     10  C   UNL     1     166.196  30.345  -6.033  1.00  0.00     0.146 A 
ATOM     11  O   UNL     1     165.512  29.335  -5.509  1.00  0.00    -0.452 OA
ENDROOT
BRANCH   1  12
ATOM     12  C   UNL     1     165.172  27.105  -4.660  1.00  0.00     0.025 A 
ATOM     13  C   UNL     1     165.343  26.705  -3.324  1.00  0.00     0.016 A 
ATOM     14  C   UNL     1     164.499  25.744  -2.760  1.00  0.00     0.051 A 
ATOM     15  C   UNL     1     163.465  25.180  -3.517  1.00  0.00     0.157 A 
ATOM     16  C   UNL     1     164.121  26.551  -5.409  1.00  0.00     0.062 A 
ATOM     17  C   UNL     1     163.274  25.588  -4.847  1.00  0.00     0.158 A 
BRANCH  15  18
ATOM     18  O   UNL     1     162.627  24.220  -2.952  1.00  0.00    -0.504 OA
ATOM     19  H   UNL     1     162.877  23.239  -2.937  1.00  0.00     0.293 HD
ENDBRANCH  15  18
BRANCH  17  20
ATOM     20  O   UNL     1     162.250  25.050  -5.626  1.00  0.00    -0.504 OA
ATOM     21  H   UNL     1     162.087  24.053  -5.687  1.00  0.00     0.293 HD
ENDBRANCH  17  20
ENDBRANCH   1  12
BRANCH   2  22
ATOM     22  O   UNL     1     167.910  26.601  -5.468  1.00  0.00    -0.502 OA
ATOM     23  H   UNL     1     168.052  26.182  -4.558  1.00  0.00     0.293 HD
ENDBRANCH   2  22
BRANCH   6  24
ATOM     24  O   UNL     1     169.644  31.357  -7.125  1.00  0.00    -0.507 OA
ATOM     25  H   UNL     1     170.181  32.193  -7.304  1.00  0.00     0.293 HD
ENDBRANCH   6  24
BRANCH   8  26
ATOM     26  O   UNL     1     165.525  33.824  -7.060  1.00  0.00    -0.508 OA
ATOM     27  H   UNL     1     166.001  34.650  -7.403  1.00  0.00     0.293 HD
ENDBRANCH   8  26
TORSDOF 6
ENDMDL
MODEL 4
REMARK VINA RESULT:    -5.104      5.244      8.285
REMARK INTER + INTRA:          -6.465
REMARK INTER:                  -6.182
REMARK INTRA:                  -0.284
REMARK UNBOUND:                -0.317
REMARK SMILES O=c1c(O)c(-c2ccc(O)c(O)c2)oc2cc(O)cc(O)c12
REMARK SMILES IDX 5 1 3 2 2 3 1 4 22 5 20 6 19 7 17 8 16 9 15 10 14 11 6 12
REMARK SMILES IDX 7 13 8 14 9 15 13 16 11 17 10 18 12 20 4 22 21 24 18 26
REMARK H PARENT 10 19 12 21 4 23 21 25 18 27
REMARK Flexibility Score: inf
ROOT
ATOM      1  C   UNL     1     165.596  35.405  -6.345  1.00  0.00     0.180 A 
ATOM      2  C   UNL     1     164.285  34.969  -6.606  1.00  0.00     0.208 A 
ATOM      3  C   UNL     1     164.055  33.603  -6.833  1.00  0.00     0.238 A 
ATOM      4  O   UNL     1     162.889  33.226  -7.120  1.00  0.00    -0.285 OA
ATOM      5  C   UNL     1     165.134  32.688  -6.780  1.00  0.00     0.111 A 
ATOM      6  C   UNL     1     165.009  31.277  -6.955  1.00  0.00     0.134 A 
ATOM      7  C   UNL     1     166.163  30.484  -7.013  1.00  0.00     0.093 A 
ATOM      8  C   UNL     1     167.431  31.043  -6.835  1.00  0.00     0.123 A 
ATOM      9  C   UNL     1     167.558  32.410  -6.606  1.00  0.00     0.094 A 
ATOM     10  C   UNL     1     166.430  33.233  -6.579  1.00  0.00     0.146 A 
ATOM     11  O   UNL     1     166.596  34.532  -6.367  1.00  0.00    -0.452 OA
ENDROOT
BRANCH   1  12
ATOM     12  C   UNL     1     165.913  36.825  -6.071  1.00  0.00     0.025 A 
ATOM     13  C   UNL     1     166.454  37.659  -7.065  1.00  0.00     0.016 A 
ATOM     14  C   UNL     1     166.724  39.003  -6.791  1.00  0.00     0.051 A 
ATOM     15  C   UNL     1     166.444  39.536  -5.526  1.00  0.00     0.157 A 
ATOM     16  C   UNL     1     165.616  37.370  -4.812  1.00  0.00     0.062 A 
ATOM     17  C   UNL     1     165.885  38.716  -4.533  1.00  0.00     0.158 A 
BRANCH  15  18
ATOM     18  O   UNL     1     166.716  40.876  -5.255  1.00  0.00    -0.504 OA
ATOM     19  H   UNL     1     167.655  41.251  -5.319  1.00  0.00     0.293 HD
ENDBRANCH  15  18
BRANCH  17  20
ATOM     20  O   UNL     1     165.588  39.217  -3.266  1.00  0.00    -0.504 OA
ATOM     21  H   UNL     1     165.032  38.698  -2.598  1.00  0.00     0.293 HD
ENDBRANCH  17  20
ENDBRANCH   1  12
BRANCH   2  22
ATOM     22  O   UNL     1     163.237  35.892  -6.676  1.00  0.00    -0.502 OA
ATOM     23  H   UNL     1     163.114  36.627  -5.990  1.00  0.00     0.293 HD
ENDBRANCH   2  22
BRANCH   6  24
ATOM     24  O   UNL     1     163.787  30.607  -7.049  1.00  0.00    -0.507 OA
ATOM     25  H   UNL     1     163.573  29.734  -6.589  1.00  0.00     0.293 HD
ENDBRANCH   6  24
BRANCH   8  26
ATOM     26  O   UNL     1     168.571  30.244  -6.879  1.00  0.00    -0.508 OA
ATOM     27  H   UNL     1     168.825  29.727  -7.712  1.00  0.00     0.293 HD
ENDBRANCH   8  26
TORSDOF 6
ENDMDL
MODEL 5
REMARK VINA RESULT:    -5.038      1.746      6.844
REMARK INTER + INTRA:          -6.387
REMARK INTER:                  -6.294
REMARK INTRA:                  -0.093
REMARK UNBOUND:                -0.317
REMARK SMILES O=c1c(O)c(-c2ccc(O)c(O)c2)oc2cc(O)cc(O)c12
REMARK SMILES IDX 5 1 3 2 2 3 1 4 22 5 20 6 19 7 17 8 16 9 15 10 14 11 6 12
REMARK SMILES IDX 7 13 8 14 9 15 13 16 11 17 10 18 12 20 4 22 21 24 18 26
REMARK H PARENT 10 19 12 21 4 23 21 25 18 27
REMARK Flexibility Score: inf
ROOT
ATOM      1  C   UNL     1     165.858  28.144  -5.939  1.00  0.00     0.180 A 
ATOM      2  C   UNL     1     165.656  29.504  -6.229  1.00  0.00     0.208 A 
ATOM      3  C   UNL     1     166.772  30.326  -6.447  1.00  0.00     0.238 A 
ATOM      4  O   UNL     1     166.587  31.555  -6.653  1.00  0.00    -0.285 OA
ATOM      5  C   UNL     1     168.075  29.777  -6.388  1.00  0.00     0.111 A 
ATOM      6  C   UNL     1     169.276  30.509  -6.631  1.00  0.00     0.134 A 
ATOM      7  C   UNL     1     170.516  29.893  -6.416  1.00  0.00     0.093 A 
ATOM      8  C   UNL     1     170.597  28.553  -6.031  1.00  0.00     0.123 A 
ATOM      9  C   UNL     1     169.431  27.814  -5.848  1.00  0.00     0.094 A 
ATOM     10  C   UNL     1     168.180  28.409  -6.020  1.00  0.00     0.146 A 
ATOM     11  O   UNL     1     167.094  27.672  -5.826  1.00  0.00    -0.452 OA
ENDROOT
BRANCH   1  12
ATOM     12  C   UNL     1     164.730  27.208  -5.722  1.00  0.00     0.025 A 
ATOM     13  C   UNL     1     163.720  27.045  -6.685  1.00  0.00     0.016 A 
ATOM     14  C   UNL     1     162.678  26.138  -6.470  1.00  0.00     0.051 A 
ATOM     15  C   UNL     1     162.638  25.374  -5.297  1.00  0.00     0.157 A 
ATOM     16  C   UNL     1     164.697  26.424  -4.558  1.00  0.00     0.062 A 
ATOM     17  C   UNL     1     163.654  25.515  -4.338  1.00  0.00     0.158 A 
BRANCH  15  18
ATOM     18  O   UNL     1     161.596  24.472  -5.084  1.00  0.00    -0.504 OA
ATOM     19  H   UNL     1     161.027  24.506  -4.247  1.00  0.00     0.293 HD
ENDBRANCH  15  18
BRANCH  17  20
ATOM     20  O   UNL     1     163.647  24.764  -3.163  1.00  0.00    -0.504 OA
ATOM     21  H   UNL     1     162.791  24.550  -2.667  1.00  0.00     0.293 HD
ENDBRANCH  17  20
ENDBRANCH   1  12
BRANCH   2  22
ATOM     22  O   UNL     1     164.362  30.032  -6.262  1.00  0.00    -0.502 OA
ATOM     23  H   UNL     1     163.691  29.782  -6.978  1.00  0.00     0.293 HD
ENDBRANCH   2  22
BRANCH   6  24
ATOM     24  O   UNL     1     169.307  31.823  -7.107  1.00  0.00    -0.507 OA
ATOM     25  H   UNL     1     169.531  32.632  -6.546  1.00  0.00     0.293 HD
ENDBRANCH   6  24
BRANCH   8  26
ATOM     26  O   UNL     1     171.835  27.945  -5.835  1.00  0.00    -0.508 OA
ATOM     27  H   UNL     1     171.920  27.062  -5.345  1.00  0.00     0.293 HD
ENDBRANCH   8  26
TORSDOF 6
ENDMDL
MODEL 6
REMARK VINA RESULT:    -4.949      2.971      7.902
REMARK INTER + INTRA:          -6.280
REMARK INTER:                  -6.104
REMARK INTRA:                  -0.176
REMARK UNBOUND:                -0.317
REMARK SMILES O=c1c(O)c(-c2ccc(O)c(O)c2)oc2cc(O)cc(O)c12
REMARK SMILES IDX 5 1 3 2 2 3 1 4 22 5 20 6 19 7 17 8 16 9 15 10 14 11 6 12
REMARK SMILES IDX 7 13 8 14 9 15 13 16 11 17 10 18 12 20 4 22 21 24 18 26
REMARK H PARENT 10 19 12 21 4 23 21 25 18 27
REMARK Flexibility Score: inf
ROOT
ATOM      1  C   UNL     1     164.298  29.851  -6.448  1.00  0.00     0.180 A 
ATOM      2  C   UNL     1     165.677  30.018  -6.666  1.00  0.00     0.208 A 
ATOM      3  C   UNL     1     166.180  31.311  -6.875  1.00  0.00     0.238 A 
ATOM      4  O   UNL     1     167.407  31.449  -7.124  1.00  0.00    -0.285 OA
ATOM      5  C   UNL     1     165.304  32.422  -6.848  1.00  0.00     0.111 A 
ATOM      6  C   UNL     1     165.712  33.780  -7.008  1.00  0.00     0.134 A 
ATOM      7  C   UNL     1     164.742  34.787  -7.094  1.00  0.00     0.093 A 
ATOM      8  C   UNL     1     163.384  34.492  -6.959  1.00  0.00     0.123 A 
ATOM      9  C   UNL     1     162.980  33.177  -6.744  1.00  0.00     0.094 A 
ATOM     10  C   UNL     1     163.920  32.146  -6.689  1.00  0.00     0.146 A 
ATOM     11  O   UNL     1     163.492  30.906  -6.492  1.00  0.00    -0.452 OA
ENDROOT
BRANCH   1  12
ATOM     12  C   UNL     1     163.696  28.522  -6.194  1.00  0.00     0.025 A 
ATOM     13  C   UNL     1     162.828  27.922  -7.123  1.00  0.00     0.016 A 
ATOM     14  C   UNL     1     162.290  26.657  -6.873  1.00  0.00     0.051 A 
ATOM     15  C   UNL     1     162.622  25.967  -5.701  1.00  0.00     0.157 A 
ATOM     16  C   UNL     1     164.041  27.817  -5.030  1.00  0.00     0.062 A 
ATOM     17  C   UNL     1     163.504  26.549  -4.776  1.00  0.00     0.158 A 
BRANCH  15  18
ATOM     18  O   UNL     1     162.082  24.705  -5.454  1.00  0.00    -0.504 OA
ATOM     19  H   UNL     1     162.670  23.887  -5.348  1.00  0.00     0.293 HD
ENDBRANCH  15  18
BRANCH  17  20
ATOM     20  O   UNL     1     163.860  25.885  -3.603  1.00  0.00    -0.504 OA
ATOM     21  H   UNL     1     163.708  24.892  -3.479  1.00  0.00     0.293 HD
ENDBRANCH  17  20
ENDBRANCH   1  12
BRANCH   2  22
ATOM     22  O   UNL     1     166.521  28.905  -6.711  1.00  0.00    -0.502 OA
ATOM     23  H   UNL     1     166.230  27.988  -6.396  1.00  0.00     0.293 HD
ENDBRANCH   2  22
BRANCH   6  24
ATOM     24  O   UNL     1     167.046  34.194  -7.060  1.00  0.00    -0.507 OA
ATOM     25  H   UNL     1     167.418  34.996  -6.572  1.00  0.00     0.293 HD
ENDBRANCH   6  24
BRANCH   8  26
ATOM     26  O   UNL     1     162.427  35.502  -7.031  1.00  0.00    -0.508 OA
ATOM     27  H   UNL     1     162.494  36.337  -6.460  1.00  0.00     0.293 HD
ENDBRANCH   8  26
TORSDOF 6
ENDMDL
MODEL 7
REMARK VINA RESULT:    -4.838      2.171      3.332
REMARK INTER + INTRA:          -6.146
REMARK INTER:                  -5.910
REMARK INTRA:                  -0.236
REMARK UNBOUND:                -0.317
REMARK SMILES O=c1c(O)c(-c2ccc(O)c(O)c2)oc2cc(O)cc(O)c12
REMARK SMILES IDX 5 1 3 2 2 3 1 4 22 5 20 6 19 7 17 8 16 9 15 10 14 11 6 12
REMARK SMILES IDX 7 13 8 14 9 15 13 16 11 17 10 18 12 20 4 22 21 24 18 26
REMARK H PARENT 10 19 12 21 4 23 21 25 18 27
REMARK Flexibility Score: inf
ROOT
ATOM      1  C   UNL     1     166.079  28.704  -5.585  1.00  0.00     0.180 A 
ATOM      2  C   UNL     1     167.208  28.093  -6.159  1.00  0.00     0.208 A 
ATOM      3  C   UNL     1     167.585  26.814  -5.720  1.00  0.00     0.238 A 
ATOM      4  O   UNL     1     168.627  26.295  -6.198  1.00  0.00    -0.285 OA
ATOM      5  C   UNL     1     166.820  26.155  -4.728  1.00  0.00     0.111 A 
ATOM      6  C   UNL     1     167.087  24.841  -4.239  1.00  0.00     0.134 A 
ATOM      7  C   UNL     1     166.343  24.341  -3.163  1.00  0.00     0.093 A 
ATOM      8  C   UNL     1     165.299  25.080  -2.603  1.00  0.00     0.123 A 
ATOM      9  C   UNL     1     164.993  26.340  -3.113  1.00  0.00     0.094 A 
ATOM     10  C   UNL     1     165.740  26.881  -4.161  1.00  0.00     0.146 A 
ATOM     11  O   UNL     1     165.421  28.088  -4.611  1.00  0.00    -0.452 OA
ENDROOT
BRANCH   1  12
ATOM     12  C   UNL     1     165.605  30.041  -6.013  1.00  0.00     0.025 A 
ATOM     13  C   UNL     1     164.419  30.195  -6.752  1.00  0.00     0.016 A 
ATOM     14  C   UNL     1     163.978  31.468  -7.123  1.00  0.00     0.051 A 
ATOM     15  C   UNL     1     164.707  32.605  -6.751  1.00  0.00     0.157 A 
ATOM     16  C   UNL     1     166.320  31.185  -5.624  1.00  0.00     0.062 A 
ATOM     17  C   UNL     1     165.882  32.462  -5.995  1.00  0.00     0.158 A 
BRANCH  15  18
ATOM     18  O   UNL     1     164.266  33.873  -7.125  1.00  0.00    -0.504 OA
ATOM     19  H   UNL     1     164.776  34.437  -7.794  1.00  0.00     0.293 HD
ENDBRANCH  15  18
BRANCH  17  20
ATOM     20  O   UNL     1     166.626  33.574  -5.602  1.00  0.00    -0.504 OA
ATOM     21  H   UNL     1     166.525  34.475  -6.052  1.00  0.00     0.293 HD
ENDBRANCH  17  20
ENDBRANCH   1  12
BRANCH   2  22
ATOM     22  O   UNL     1     167.962  28.770  -7.122  1.00  0.00    -0.502 OA
ATOM     23  H   UNL     1     167.596  28.995  -8.039  1.00  0.00     0.293 HD
ENDBRANCH   2  22
BRANCH   6  24
ATOM     24  O   UNL     1     168.045  23.983  -4.787  1.00  0.00    -0.507 OA
ATOM     25  H   UNL     1     168.208  23.861  -5.776  1.00  0.00     0.293 HD
ENDBRANCH   6  24
BRANCH   8  26
ATOM     26  O   UNL     1     164.555  24.568  -1.543  1.00  0.00    -0.508 OA
ATOM     27  H   UNL     1     163.553  24.429  -1.617  1.00  0.00     0.293 HD
ENDBRANCH   8  26
TORSDOF 6
ENDMDL
MODEL 8
REMARK VINA RESULT:    -4.827      6.188      9.388
REMARK INTER + INTRA:          -6.132
REMARK INTER:                  -6.071
REMARK INTRA:                  -0.061
REMARK UNBOUND:                -0.317
REMARK SMILES O=c1c(O)c(-c2ccc(O)c(O)c2)oc2cc(O)cc(O)c12
REMARK SMILES IDX 5 1 3 2 2 3 1 4 22 5 20 6 19 7 17 8 16 9 15 10 14 11 6 12
REMARK SMILES IDX 7 13 8 14 9 15 13 16 11 17 10 18 12 20 4 22 21 24 18 26
REMARK H PARENT 10 19 12 21 4 23 21 25 18 27
REMARK Flexibility Score: inf
ROOT
ATOM      1  C   UNL     1     165.454  36.707  -6.142  1.00  0.00     0.180 A 
ATOM      2  C   UNL     1     164.061  36.612  -6.311  1.00  0.00     0.208 A 
ATOM      3  C   UNL     1     163.492  35.355  -6.567  1.00  0.00     0.238 A 
ATOM      4  O   UNL     1     162.252  35.284  -6.771  1.00  0.00    -0.285 OA
ATOM      5  C   UNL     1     164.318  34.207  -6.634  1.00  0.00     0.111 A 
ATOM      6  C   UNL     1     163.843  32.878  -6.848  1.00  0.00     0.134 A 
ATOM      7  C   UNL     1     164.762  31.837  -7.027  1.00  0.00     0.093 A 
ATOM      8  C   UNL     1     166.137  32.066  -6.934  1.00  0.00     0.123 A 
ATOM      9  C   UNL     1     166.608  33.349  -6.667  1.00  0.00     0.094 A 
ATOM     10  C   UNL     1     165.718  34.415  -6.519  1.00  0.00     0.146 A 
ATOM     11  O   UNL     1     166.209  35.623  -6.275  1.00  0.00    -0.452 OA
ENDROOT
BRANCH   1  12
ATOM     12  C   UNL     1     166.125  37.994  -5.844  1.00  0.00     0.025 A 
ATOM     13  C   UNL     1     165.711  38.805  -4.773  1.00  0.00     0.016 A 
ATOM     14  C   UNL     1     166.375  40.003  -4.497  1.00  0.00     0.051 A 
ATOM     15  C   UNL     1     167.469  40.401  -5.275  1.00  0.00     0.157 A 
ATOM     16  C   UNL     1     167.235  38.387  -6.609  1.00  0.00     0.062 A 
ATOM     17  C   UNL     1     167.902  39.587  -6.335  1.00  0.00     0.158 A 
BRANCH  15  18
ATOM     18  O   UNL     1     168.127  41.598  -4.998  1.00  0.00    -0.504 OA
ATOM     19  H   UNL     1     168.344  41.878  -4.049  1.00  0.00     0.293 HD
ENDBRANCH  15  18
BRANCH  17  20
ATOM     20  O   UNL     1     168.992  39.952  -7.125  1.00  0.00    -0.504 OA
ATOM     21  H   UNL     1     169.407  39.317  -7.795  1.00  0.00     0.293 HD
ENDBRANCH  17  20
ENDBRANCH   1  12
BRANCH   2  22
ATOM     22  O   UNL     1     163.267  37.761  -6.262  1.00  0.00    -0.502 OA
ATOM     23  H   UNL     1     163.641  38.672  -6.026  1.00  0.00     0.293 HD
ENDBRANCH   2  22
BRANCH   6  24
ATOM     24  O   UNL     1     162.490  32.526  -6.866  1.00  0.00    -0.507 OA
ATOM     25  H   UNL     1     161.747  33.117  -7.210  1.00  0.00     0.293 HD
ENDBRANCH   6  24
BRANCH   8  26
ATOM     26  O   UNL     1     167.043  31.021  -7.098  1.00  0.00    -0.508 OA
ATOM     27  H   UNL     1     166.929  30.329  -7.829  1.00  0.00     0.293 HD
ENDBRANCH   8  26
TORSDOF 6
ENDMDL
MODEL 9
REMARK VINA RESULT:    -4.814      3.620      5.788
REMARK INTER + INTRA:          -6.117
REMARK INTER:                  -6.650
REMARK INTRA:                   0.534
REMARK UNBOUND:                -0.317
REMARK SMILES O=c1c(O)c(-c2ccc(O)c(O)c2)oc2cc(O)cc(O)c12
REMARK SMILES IDX 5 1 3 2 2 3 1 4 22 5 20 6 19 7 17 8 16 9 15 10 14 11 6 12
REMARK SMILES IDX 7 13 8 14 9 15 13 16 11 17 10 18 12 20 4 22 21 24 18 26
REMARK H PARENT 10 19 12 21 4 23 21 25 18 27
REMARK Flexibility Score: inf
ROOT
ATOM      1  C   UNL     1     164.209  31.496  -6.743  1.00  0.00     0.180 A 
ATOM      2  C   UNL     1     165.568  31.144  -6.808  1.00  0.00     0.208 A 
ATOM      3  C   UNL     1     165.918  29.785  -6.835  1.00  0.00     0.238 A 
ATOM      4  O   UNL     1     167.139  29.476  -6.839  1.00  0.00    -0.285 OA
ATOM      5  C   UNL     1     164.907  28.796  -6.815  1.00  0.00     0.111 A 
ATOM      6  C   UNL     1     165.146  27.390  -6.879  1.00  0.00     0.134 A 
ATOM      7  C   UNL     1     164.077  26.500  -6.719  1.00  0.00     0.093 A 
ATOM      8  C   UNL     1     162.769  26.965  -6.563  1.00  0.00     0.123 A 
ATOM      9  C   UNL     1     162.519  28.335  -6.557  1.00  0.00     0.094 A 
ATOM     10  C   UNL     1     163.568  29.248  -6.679  1.00  0.00     0.146 A 
ATOM     11  O   UNL     1     163.286  30.545  -6.658  1.00  0.00    -0.452 OA
ENDROOT
BRANCH   1  12
ATOM     12  C   UNL     1     163.760  32.907  -6.735  1.00  0.00     0.025 A 
ATOM     13  C   UNL     1     162.419  33.248  -6.484  1.00  0.00     0.016 A 
ATOM     14  C   UNL     1     162.024  34.588  -6.458  1.00  0.00     0.051 A 
ATOM     15  C   UNL     1     162.961  35.606  -6.669  1.00  0.00     0.157 A 
ATOM     16  C   UNL     1     164.700  33.933  -6.926  1.00  0.00     0.062 A 
ATOM     17  C   UNL     1     164.307  35.277  -6.901  1.00  0.00     0.158 A 
BRANCH  15  18
ATOM     18  O   UNL     1     162.563  36.942  -6.645  1.00  0.00    -0.504 OA
ATOM     19  H   UNL     1     162.715  37.556  -7.436  1.00  0.00     0.293 HD
ENDBRANCH  15  18
BRANCH  17  20
ATOM     20  O   UNL     1     165.267  36.267  -7.108  1.00  0.00    -0.504 OA
ATOM     21  H   UNL     1     165.040  37.252  -7.067  1.00  0.00     0.293 HD
ENDBRANCH  17  20
ENDBRANCH   1  12
BRANCH   2  22
ATOM     22  O   UNL     1     166.553  32.137  -6.806  1.00  0.00    -0.502 OA
ATOM     23  H   UNL     1     166.993  32.463  -5.955  1.00  0.00     0.293 HD
ENDBRANCH   2  22
BRANCH   6  24
ATOM     24  O   UNL     1     166.399  26.822  -7.125  1.00  0.00    -0.507 OA
ATOM     25  H   UNL     1     167.116  26.689  -6.426  1.00  0.00     0.293 HD
ENDBRANCH   6  24
BRANCH   8  26
ATOM     26  O   UNL     1     161.710  26.072  -6.419  1.00  0.00    -0.508 OA
ATOM     27  H   UNL     1     161.180  26.011  -5.557  1.00  0.00     0.293 HD
ENDBRANCH   8  26
TORSDOF 6
ENDMDL
