MODEL 1
REMARK VINA RESULT:    -6.810      0.000      0.000
REMARK INTER + INTRA:          -8.303
REMARK INTER:                  -8.004
REMARK INTRA:                  -0.299
REMARK UNBOUND:                -0.299
REMARK SMILES O=c1c(O)c(-c2ccc(O)cc2)oc2cc(O)cc(O)c12
REMARK SMILES IDX 5 1 3 2 2 3 1 4 21 5 19 6 18 7 16 8 15 9 14 10 13 11 6 12
REMARK SMILES IDX 7 13 8 14 9 15 12 16 11 17 10 18 4 20 20 22 17 24
REMARK H PARENT 10 19 4 21 20 23 17 25
REMARK Flexibility Score: inf
ROOT
ATOM      1  C   UNL     1      -5.174  15.390   7.005  1.00  0.00     0.180 A 
ATOM      2  C   UNL     1      -5.621  14.477   6.030  1.00  0.00     0.208 A 
ATOM      3  C   UNL     1      -6.991  14.421   5.731  1.00  0.00     0.238 A 
ATOM      4  O   UNL     1      -7.401  13.615   4.852  1.00  0.00    -0.285 OA
ATOM      5  C   UNL     1      -7.890  15.259   6.421  1.00  0.00     0.111 A 
ATOM      6  C   UNL     1      -9.285  15.262   6.181  1.00  0.00     0.134 A 
ATOM      7  C   UNL     1     -10.116  16.120   6.917  1.00  0.00     0.093 A 
ATOM      8  C   UNL     1      -9.578  16.974   7.887  1.00  0.00     0.123 A 
ATOM      9  C   UNL     1      -8.203  16.976   8.125  1.00  0.00     0.094 A 
ATOM     10  C   UNL     1      -7.358  16.129   7.402  1.00  0.00     0.146 A 
ATOM     11  O   UNL     1      -6.053  16.154   7.647  1.00  0.00    -0.452 OA
ENDROOT
BRANCH   1  12
ATOM     12  C   UNL     1      -3.743  15.521   7.364  1.00  0.00     0.021 A 
ATOM     13  C   UNL     1      -3.243  14.825   8.477  1.00  0.00     0.016 A 
ATOM     14  C   UNL     1      -1.900  14.952   8.847  1.00  0.00     0.047 A 
ATOM     15  C   UNL     1      -1.045  15.786   8.120  1.00  0.00     0.115 A 
ATOM     16  C   UNL     1      -2.884  16.375   6.649  1.00  0.00     0.016 A 
ATOM     17  C   UNL     1      -1.542  16.501   7.021  1.00  0.00     0.047 A 
BRANCH  15  18
ATOM     18  O   UNL     1       0.289  15.903   8.499  1.00  0.00    -0.508 OA
ATOM     19  H   UNL     1       0.902  15.097   8.536  1.00  0.00     0.293 HD
ENDBRANCH  15  18
ENDBRANCH   1  12
BRANCH   2  20
ATOM     20  O   UNL     1      -4.715  13.621   5.397  1.00  0.00    -0.502 OA
ATOM     21  H   UNL     1      -3.725  13.627   5.609  1.00  0.00     0.293 HD
ENDBRANCH   2  20
BRANCH   6  22
ATOM     22  O   UNL     1      -9.851  14.421   5.222  1.00  0.00    -0.507 OA
ATOM     23  H   UNL     1     -10.665  13.852   5.424  1.00  0.00     0.293 HD
ENDBRANCH   6  22
BRANCH   8  24
ATOM     24  O   UNL     1     -10.402  17.826   8.618  1.00  0.00    -0.508 OA
ATOM     25  H   UNL     1     -10.265  18.830   8.612  1.00  0.00     0.293 HD
ENDBRANCH   8  24
TORSDOF 5
ENDMDL
MODEL 2
REMARK VINA RESULT:    -6.766      0.064      1.059
REMARK INTER + INTRA:          -8.252
REMARK INTER:                  -7.965
REMARK INTRA:                  -0.287
REMARK UNBOUND:                -0.299
REMARK SMILES O=c1c(O)c(-c2ccc(O)cc2)oc2cc(O)cc(O)c12
REMARK SMILES IDX 5 1 3 2 2 3 1 4 21 5 19 6 18 7 16 8 15 9 14 10 13 11 6 12
REMARK SMILES IDX 7 13 8 14 9 15 12 16 11 17 10 18 4 20 20 22 17 24
REMARK H PARENT 10 19 4 21 20 23 17 25
REMARK Flexibility Score: inf
ROOT
ATOM      1  C   UNL     1      -5.174  15.427   7.072  1.00  0.00     0.180 A 
ATOM      2  C   UNL     1      -5.605  14.527   6.078  1.00  0.00     0.208 A 
ATOM      3  C   UNL     1      -6.969  14.477   5.754  1.00  0.00     0.238 A 
ATOM      4  O   UNL     1      -7.365  13.682   4.858  1.00  0.00    -0.285 OA
ATOM      5  C   UNL     1      -7.880  15.307   6.438  1.00  0.00     0.111 A 
ATOM      6  C   UNL     1      -9.271  15.315   6.173  1.00  0.00     0.134 A 
ATOM      7  C   UNL     1     -10.113  16.166   6.905  1.00  0.00     0.093 A 
ATOM      8  C   UNL     1      -9.591  17.008   7.894  1.00  0.00     0.123 A 
ATOM      9  C   UNL     1      -8.221  17.005   8.157  1.00  0.00     0.094 A 
ATOM     10  C   UNL     1      -7.364  16.165   7.439  1.00  0.00     0.146 A 
ATOM     11  O   UNL     1      -6.064  16.186   7.707  1.00  0.00    -0.452 OA
ENDROOT
BRANCH   1  12
ATOM     12  C   UNL     1      -3.749  15.552   7.457  1.00  0.00     0.021 A 
ATOM     13  C   UNL     1      -2.906  16.401   6.719  1.00  0.00     0.016 A 
ATOM     14  C   UNL     1      -1.553  16.516   7.051  1.00  0.00     0.047 A 
ATOM     15  C   UNL     1      -1.022  15.777   8.112  1.00  0.00     0.115 A 
ATOM     16  C   UNL     1      -3.206  14.796   8.510  1.00  0.00     0.016 A 
ATOM     17  C   UNL     1      -1.851  14.913   8.840  1.00  0.00     0.047 A 
BRANCH  15  18
ATOM     18  O   UNL     1       0.327  15.902   8.432  1.00  0.00    -0.508 OA
ATOM     19  H   UNL     1       0.669  15.724   9.369  1.00  0.00     0.293 HD
ENDBRANCH  15  18
ENDBRANCH   1  12
BRANCH   2  20
ATOM     20  O   UNL     1      -4.689  13.678   5.451  1.00  0.00    -0.502 OA
ATOM     21  H   UNL     1      -3.696  13.711   5.647  1.00  0.00     0.293 HD
ENDBRANCH   2  20
BRANCH   6  22
ATOM     22  O   UNL     1      -9.820  14.487   5.194  1.00  0.00    -0.507 OA
ATOM     23  H   UNL     1     -10.628  13.905   5.380  1.00  0.00     0.293 HD
ENDBRANCH   6  22
BRANCH   8  24
ATOM     24  O   UNL     1     -10.427  17.852   8.620  1.00  0.00    -0.508 OA
ATOM     25  H   UNL     1     -10.728  17.621   9.560  1.00  0.00     0.293 HD
ENDBRANCH   8  24
TORSDOF 5
ENDMDL
MODEL 3
REMARK VINA RESULT:    -6.574      1.696      3.481
REMARK INTER + INTRA:          -8.026
REMARK INTER:                  -7.812
REMARK INTRA:                  -0.214
REMARK UNBOUND:                -0.299
REMARK SMILES O=c1c(O)c(-c2ccc(O)cc2)oc2cc(O)cc(O)c12
REMARK SMILES IDX 5 1 3 2 2 3 1 4 21 5 19 6 18 7 16 8 15 9 14 10 13 11 6 12
REMARK SMILES IDX 7 13 8 14 9 15 12 16 11 17 10 18 4 20 20 22 17 24
REMARK H PARENT 10 19 4 21 20 23 17 25
REMARK Flexibility Score: inf
ROOT
ATOM      1  C   UNL     1      -3.495  15.447   8.046  1.00  0.00     0.180 A 
ATOM      2  C   UNL     1      -4.381  16.091   8.931  1.00  0.00     0.208 A 
ATOM      3  C   UNL     1      -5.762  15.999   8.695  1.00  0.00     0.238 A 
ATOM      4  O   UNL     1      -6.565  16.563   9.486  1.00  0.00    -0.285 OA
ATOM      5  C   UNL     1      -6.231  15.288   7.572  1.00  0.00     0.111 A 
ATOM      6  C   UNL     1      -7.605  15.151   7.260  1.00  0.00     0.134 A 
ATOM      7  C   UNL     1      -7.992  14.433   6.119  1.00  0.00     0.093 A 
ATOM      8  C   UNL     1      -7.031  13.850   5.284  1.00  0.00     0.123 A 
ATOM      9  C   UNL     1      -5.675  13.981   5.588  1.00  0.00     0.094 A 
ATOM     10  C   UNL     1      -5.269  14.692   6.722  1.00  0.00     0.146 A 
ATOM     11  O   UNL     1      -3.973  14.796   6.989  1.00  0.00    -0.452 OA
ENDROOT
BRANCH   1  12
ATOM     12  C   UNL     1      -2.027  15.482   8.239  1.00  0.00     0.021 A 
ATOM     13  C   UNL     1      -1.449  14.734   9.278  1.00  0.00     0.016 A 
ATOM     14  C   UNL     1      -0.067  14.770   9.493  1.00  0.00     0.047 A 
ATOM     15  C   UNL     1       0.751  15.563   8.683  1.00  0.00     0.115 A 
ATOM     16  C   UNL     1      -1.202  16.294   7.440  1.00  0.00     0.016 A 
ATOM     17  C   UNL     1       0.180  16.329   7.657  1.00  0.00     0.047 A 
BRANCH  15  18
ATOM     18  O   UNL     1       2.125  15.589   8.907  1.00  0.00    -0.508 OA
ATOM     19  H   UNL     1       2.769  15.942   8.209  1.00  0.00     0.293 HD
ENDBRANCH  15  18
ENDBRANCH   1  12
BRANCH   2  20
ATOM     20  O   UNL     1      -3.888  16.834  10.008  1.00  0.00    -0.502 OA
ATOM     21  H   UNL     1      -3.666  16.412  10.901  1.00  0.00     0.293 HD
ENDBRANCH   2  20
BRANCH   6  22
ATOM     22  O   UNL     1      -8.586  15.721   8.073  1.00  0.00    -0.507 OA
ATOM     23  H   UNL     1      -9.556  15.772   7.782  1.00  0.00     0.293 HD
ENDBRANCH   6  22
BRANCH   8  24
ATOM     24  O   UNL     1      -7.414  13.137   4.151  1.00  0.00    -0.508 OA
ATOM     25  H   UNL     1      -7.041  13.357   3.235  1.00  0.00     0.293 HD
ENDBRANCH   8  24
TORSDOF 5
ENDMDL
MODEL 4
REMARK VINA RESULT:    -6.403      4.272      6.258
REMARK INTER + INTRA:          -7.825
REMARK INTER:                  -7.597
REMARK INTRA:                  -0.228
REMARK UNBOUND:                -0.299
REMARK SMILES O=c1c(O)c(-c2ccc(O)cc2)oc2cc(O)cc(O)c12
REMARK SMILES IDX 5 1 3 2 2 3 1 4 21 5 19 6 18 7 16 8 15 9 14 10 13 11 6 12
REMARK SMILES IDX 7 13 8 14 9 15 12 16 11 17 10 18 4 20 20 22 17 24
REMARK H PARENT 10 19 4 21 20 23 17 25
REMARK Flexibility Score: inf
ROOT
ATOM      1  C   UNL     1      -6.178  14.180  10.521  1.00  0.00     0.180 A 
ATOM      2  C   UNL     1      -5.330  15.304  10.510  1.00  0.00     0.208 A 
ATOM      3  C   UNL     1      -4.965  15.867   9.277  1.00  0.00     0.238 A 
ATOM      4  O   UNL     1      -4.215  16.880   9.256  1.00  0.00    -0.285 OA
ATOM      5  C   UNL     1      -5.434  15.288   8.081  1.00  0.00     0.111 A 
ATOM      6  C   UNL     1      -5.110  15.791   6.798  1.00  0.00     0.134 A 
ATOM      7  C   UNL     1      -5.609  15.153   5.653  1.00  0.00     0.093 A 
ATOM      8  C   UNL     1      -6.425  14.021   5.767  1.00  0.00     0.123 A 
ATOM      9  C   UNL     1      -6.749  13.522   7.029  1.00  0.00     0.094 A 
ATOM     10  C   UNL     1      -6.262  14.145   8.183  1.00  0.00     0.146 A 
ATOM     11  O   UNL     1      -6.589  13.652   9.372  1.00  0.00    -0.452 OA
ENDROOT
BRANCH   1  12
ATOM     12  C   UNL     1      -6.623  13.541  11.781  1.00  0.00     0.021 A 
ATOM     13  C   UNL     1      -6.137  12.266  12.118  1.00  0.00     0.016 A 
ATOM     14  C   UNL     1      -6.561  11.635  13.291  1.00  0.00     0.047 A 
ATOM     15  C   UNL     1      -7.485  12.261  14.134  1.00  0.00     0.115 A 
ATOM     16  C   UNL     1      -7.568  14.157  12.621  1.00  0.00     0.016 A 
ATOM     17  C   UNL     1      -7.991  13.523  13.794  1.00  0.00     0.047 A 
BRANCH  15  18
ATOM     18  O   UNL     1      -7.898  11.621  15.299  1.00  0.00    -0.508 OA
ATOM     19  H   UNL     1      -7.362  10.863  15.707  1.00  0.00     0.293 HD
ENDBRANCH  15  18
ENDBRANCH   1  12
BRANCH   2  20
ATOM     20  O   UNL     1      -4.838  15.828  11.709  1.00  0.00    -0.502 OA
ATOM     21  H   UNL     1      -4.187  16.604  11.735  1.00  0.00     0.293 HD
ENDBRANCH   2  20
BRANCH   6  22
ATOM     22  O   UNL     1      -4.298  16.917   6.652  1.00  0.00    -0.507 OA
ATOM     23  H   UNL     1      -3.870  17.373   7.449  1.00  0.00     0.293 HD
ENDBRANCH   6  22
BRANCH   8  24
ATOM     24  O   UNL     1      -6.922  13.387   4.631  1.00  0.00    -0.508 OA
ATOM     25  H   UNL     1      -7.906  13.421   4.391  1.00  0.00     0.293 HD
ENDBRANCH   8  24
TORSDOF 5
ENDMDL
MODEL 5
REMARK VINA RESULT:    -6.317      2.015      7.352
REMARK INTER + INTRA:          -7.723
REMARK INTER:                  -7.439
REMARK INTRA:                  -0.285
REMARK UNBOUND:                -0.299
REMARK SMILES O=c1c(O)c(-c2ccc(O)cc2)oc2cc(O)cc(O)c12
REMARK SMILES IDX 5 1 3 2 2 3 1 4 21 5 19 6 18 7 16 8 15 9 14 10 13 11 6 12
REMARK SMILES IDX 7 13 8 14 9 15 12 16 11 17 10 18 4 20 20 22 17 24
REMARK H PARENT 10 19 4 21 20 23 17 25
REMARK Flexibility Score: inf
ROOT
ATOM      1  C   UNL     1      -3.536  15.300   6.965  1.00  0.00     0.180 A 
ATOM      2  C   UNL     1      -2.997  14.656   8.096  1.00  0.00     0.208 A 
ATOM      3  C   UNL     1      -1.683  14.956   8.486  1.00  0.00     0.238 A 
ATOM      4  O   UNL     1      -1.194  14.393   9.503  1.00  0.00    -0.285 OA
ATOM      5  C   UNL     1      -0.925  15.875   7.732  1.00  0.00     0.111 A 
ATOM      6  C   UNL     1       0.407  16.230   8.055  1.00  0.00     0.134 A 
ATOM      7  C   UNL     1       1.098  17.146   7.249  1.00  0.00     0.093 A 
ATOM      8  C   UNL     1       0.483  17.714   6.127  1.00  0.00     0.123 A 
ATOM      9  C   UNL     1      -0.830  17.369   5.805  1.00  0.00     0.094 A 
ATOM     10  C   UNL     1      -1.537  16.458   6.597  1.00  0.00     0.146 A 
ATOM     11  O   UNL     1      -2.786  16.150   6.270  1.00  0.00    -0.452 OA
ENDROOT
BRANCH   1  12
ATOM     12  C   UNL     1      -4.920  15.050   6.502  1.00  0.00     0.021 A 
ATOM     13  C   UNL     1      -5.962  15.871   6.965  1.00  0.00     0.016 A 
ATOM     14  C   UNL     1      -7.280  15.639   6.559  1.00  0.00     0.047 A 
ATOM     15  C   UNL     1      -7.575  14.578   5.698  1.00  0.00     0.115 A 
ATOM     16  C   UNL     1      -5.226  13.972   5.652  1.00  0.00     0.016 A 
ATOM     17  C   UNL     1      -6.545  13.742   5.248  1.00  0.00     0.047 A 
BRANCH  15  18
ATOM     18  O   UNL     1      -8.892  14.359   5.301  1.00  0.00    -0.508 OA
ATOM     19  H   UNL     1      -9.219  14.624   4.379  1.00  0.00     0.293 HD
ENDBRANCH  15  18
ENDBRANCH   1  12
BRANCH   2  20
ATOM     20  O   UNL     1      -3.752  13.710   8.796  1.00  0.00    -0.502 OA
ATOM     21  H   UNL     1      -3.910  12.774   8.444  1.00  0.00     0.293 HD
ENDBRANCH   2  20
BRANCH   6  22
ATOM     22  O   UNL     1       1.047  15.680   9.167  1.00  0.00    -0.507 OA
ATOM     23  H   UNL     1       1.939  16.031   9.496  1.00  0.00     0.293 HD
ENDBRANCH   6  22
BRANCH   8  24
ATOM     24  O   UNL     1       1.169  18.624   5.326  1.00  0.00    -0.508 OA
ATOM     25  H   UNL     1       1.259  18.488   4.326  1.00  0.00     0.293 HD
ENDBRANCH   8  24
TORSDOF 5
ENDMDL
MODEL 6
REMARK VINA RESULT:    -6.310      1.034      1.223
REMARK INTER + INTRA:          -7.716
REMARK INTER:                  -7.420
REMARK INTRA:                  -0.296
REMARK UNBOUND:                -0.299
REMARK SMILES O=c1c(O)c(-c2ccc(O)cc2)oc2cc(O)cc(O)c12
REMARK SMILES IDX 5 1 3 2 2 3 1 4 21 5 19 6 18 7 16 8 15 9 14 10 13 11 6 12
REMARK SMILES IDX 7 13 8 14 9 15 12 16 11 17 10 18 4 20 20 22 17 24
REMARK H PARENT 10 19 4 21 20 23 17 25
REMARK Flexibility Score: inf
ROOT
ATOM      1  C   UNL     1      -6.154  15.700   7.272  1.00  0.00     0.180 A 
ATOM      2  C   UNL     1      -6.766  15.014   6.205  1.00  0.00     0.208 A 
ATOM      3  C   UNL     1      -8.160  15.092   6.059  1.00  0.00     0.238 A 
ATOM      4  O   UNL     1      -8.718  14.491   5.102  1.00  0.00    -0.285 OA
ATOM      5  C   UNL     1      -8.918  15.832   6.990  1.00  0.00     0.111 A 
ATOM      6  C   UNL     1     -10.326  15.957   6.917  1.00  0.00     0.134 A 
ATOM      7  C   UNL     1     -11.009  16.705   7.887  1.00  0.00     0.093 A 
ATOM      8  C   UNL     1     -10.311  17.329   8.928  1.00  0.00     0.123 A 
ATOM      9  C   UNL     1      -8.923  17.210   9.003  1.00  0.00     0.094 A 
ATOM     10  C   UNL     1      -8.223  16.469   8.045  1.00  0.00     0.146 A 
ATOM     11  O   UNL     1      -6.902  16.376   8.138  1.00  0.00    -0.452 OA
ENDROOT
BRANCH   1  12
ATOM     12  C   UNL     1      -4.687  15.682   7.481  1.00  0.00     0.021 A 
ATOM     13  C   UNL     1      -4.129  14.754   8.377  1.00  0.00     0.016 A 
ATOM     14  C   UNL     1      -2.750  14.735   8.606  1.00  0.00     0.047 A 
ATOM     15  C   UNL     1      -1.914  15.649   7.957  1.00  0.00     0.115 A 
ATOM     16  C   UNL     1      -3.845  16.612   6.846  1.00  0.00     0.016 A 
ATOM     17  C   UNL     1      -2.466  16.591   7.079  1.00  0.00     0.047 A 
BRANCH  15  18
ATOM     18  O   UNL     1      -0.543  15.618   8.195  1.00  0.00    -0.508 OA
ATOM     19  H   UNL     1       0.124  15.516   7.439  1.00  0.00     0.293 HD
ENDBRANCH  15  18
ENDBRANCH   1  12
BRANCH   2  20
ATOM     20  O   UNL     1      -5.998  14.245   5.326  1.00  0.00    -0.502 OA
ATOM     21  H   UNL     1      -5.779  14.552   4.386  1.00  0.00     0.293 HD
ENDBRANCH   2  20
BRANCH   6  22
ATOM     22  O   UNL     1     -11.049  15.346   5.892  1.00  0.00    -0.507 OA
ATOM     23  H   UNL     1     -11.452  15.881   5.131  1.00  0.00     0.293 HD
ENDBRANCH   6  22
BRANCH   8  24
ATOM     24  O   UNL     1     -10.989  18.071   9.892  1.00  0.00    -0.508 OA
ATOM     25  H   UNL     1     -11.916  18.443   9.719  1.00  0.00     0.293 HD
ENDBRANCH   8  24
TORSDOF 5
ENDMDL
MODEL 7
REMARK VINA RESULT:    -6.286      2.154      6.601
REMARK INTER + INTRA:          -7.688
REMARK INTER:                  -7.646
REMARK INTRA:                  -0.042
REMARK UNBOUND:                -0.299
REMARK SMILES O=c1c(O)c(-c2ccc(O)cc2)oc2cc(O)cc(O)c12
REMARK SMILES IDX 5 1 3 2 2 3 1 4 21 5 19 6 18 7 16 8 15 9 14 10 13 11 6 12
REMARK SMILES IDX 7 13 8 14 9 15 12 16 11 17 10 18 4 20 20 22 17 24
REMARK H PARENT 10 19 4 21 20 23 17 25
REMARK Flexibility Score: inf
ROOT
ATOM      1  C   UNL     1      -7.405  15.946   7.328  1.00  0.00     0.180 A 
ATOM      2  C   UNL     1      -6.435  15.524   6.398  1.00  0.00     0.208 A 
ATOM      3  C   UNL     1      -5.101  15.405   6.817  1.00  0.00     0.238 A 
ATOM      4  O   UNL     1      -4.225  15.017   5.996  1.00  0.00    -0.285 OA
ATOM      5  C   UNL     1      -4.755  15.728   8.145  1.00  0.00     0.111 A 
ATOM      6  C   UNL     1      -3.434  15.639   8.645  1.00  0.00     0.134 A 
ATOM      7  C   UNL     1      -3.170  15.987   9.978  1.00  0.00     0.093 A 
ATOM      8  C   UNL     1      -4.201  16.423  10.819  1.00  0.00     0.123 A 
ATOM      9  C   UNL     1      -5.505  16.511  10.331  1.00  0.00     0.094 A 
ATOM     10  C   UNL     1      -5.789  16.167   9.005  1.00  0.00     0.146 A 
ATOM     11  O   UNL     1      -7.040  16.257   8.568  1.00  0.00    -0.452 OA
ENDROOT
BRANCH   1  12
ATOM     12  C   UNL     1      -8.836  16.078   6.968  1.00  0.00     0.021 A 
ATOM     13  C   UNL     1      -9.514  17.274   7.260  1.00  0.00     0.016 A 
ATOM     14  C   UNL     1     -10.870  17.412   6.949  1.00  0.00     0.047 A 
ATOM     15  C   UNL     1     -11.568  16.355   6.358  1.00  0.00     0.115 A 
ATOM     16  C   UNL     1      -9.547  15.011   6.391  1.00  0.00     0.016 A 
ATOM     17  C   UNL     1     -10.905  15.152   6.082  1.00  0.00     0.047 A 
BRANCH  15  18
ATOM     18  O   UNL     1     -12.919  16.506   6.053  1.00  0.00    -0.508 OA
ATOM     19  H   UNL     1     -13.419  15.817   5.504  1.00  0.00     0.293 HD
ENDBRANCH  15  18
ENDBRANCH   1  12
BRANCH   2  20
ATOM     20  O   UNL     1      -6.795  15.259   5.074  1.00  0.00    -0.502 OA
ATOM     21  H   UNL     1      -6.885  14.316   4.715  1.00  0.00     0.293 HD
ENDBRANCH   2  20
BRANCH   6  22
ATOM     22  O   UNL     1      -2.385  15.209   7.832  1.00  0.00    -0.507 OA
ATOM     23  H   UNL     1      -2.422  14.326   7.336  1.00  0.00     0.293 HD
ENDBRANCH   6  22
BRANCH   8  24
ATOM     24  O   UNL     1      -3.938  16.769  12.142  1.00  0.00    -0.508 OA
ATOM     25  H   UNL     1      -4.654  16.710  12.857  1.00  0.00     0.293 HD
ENDBRANCH   8  24
TORSDOF 5
ENDMDL
MODEL 8
REMARK VINA RESULT:    -6.175      3.803      6.548
REMARK INTER + INTRA:          -7.557
REMARK INTER:                  -7.262
REMARK INTRA:                  -0.295
REMARK UNBOUND:                -0.299
REMARK SMILES O=c1c(O)c(-c2ccc(O)cc2)oc2cc(O)cc(O)c12
REMARK SMILES IDX 5 1 3 2 2 3 1 4 21 5 19 6 18 7 16 8 15 9 14 10 13 11 6 12
REMARK SMILES IDX 7 13 8 14 9 15 12 16 11 17 10 18 4 20 20 22 17 24
REMARK H PARENT 10 19 4 21 20 23 17 25
REMARK Flexibility Score: inf
ROOT
ATOM      1  C   UNL     1      -6.383  14.730  10.377  1.00  0.00     0.180 A 
ATOM      2  C   UNL     1      -5.130  15.367  10.459  1.00  0.00     0.208 A 
ATOM      3  C   UNL     1      -4.342  15.465   9.301  1.00  0.00     0.238 A 
ATOM      4  O   UNL     1      -3.223  16.044   9.361  1.00  0.00    -0.285 OA
ATOM      5  C   UNL     1      -4.806  14.910   8.092  1.00  0.00     0.111 A 
ATOM      6  C   UNL     1      -4.073  14.963   6.883  1.00  0.00     0.134 A 
ATOM      7  C   UNL     1      -4.601  14.378   5.722  1.00  0.00     0.093 A 
ATOM      8  C   UNL     1      -5.847  13.741   5.749  1.00  0.00     0.123 A 
ATOM      9  C   UNL     1      -6.575  13.688   6.938  1.00  0.00     0.094 A 
ATOM     10  C   UNL     1      -6.067  14.266   8.106  1.00  0.00     0.146 A 
ATOM     11  O   UNL     1      -6.783  14.204   9.222  1.00  0.00    -0.452 OA
ENDROOT
BRANCH   1  12
ATOM     12  C   UNL     1      -7.280  14.603  11.549  1.00  0.00     0.021 A 
ATOM     13  C   UNL     1      -7.288  13.407  12.286  1.00  0.00     0.016 A 
ATOM     14  C   UNL     1      -8.143  13.257  13.382  1.00  0.00     0.047 A 
ATOM     15  C   UNL     1      -9.009  14.292  13.746  1.00  0.00     0.115 A 
ATOM     16  C   UNL     1      -8.168  15.633  11.907  1.00  0.00     0.016 A 
ATOM     17  C   UNL     1      -9.023  15.480  13.003  1.00  0.00     0.047 A 
BRANCH  15  18
ATOM     18  O   UNL     1      -9.855  14.130  14.840  1.00  0.00    -0.508 OA
ATOM     19  H   UNL     1     -10.145  13.211  15.155  1.00  0.00     0.293 HD
ENDBRANCH  15  18
ENDBRANCH   1  12
BRANCH   2  20
ATOM     20  O   UNL     1      -4.669  15.865  11.681  1.00  0.00    -0.502 OA
ATOM     21  H   UNL     1      -4.943  16.773  12.034  1.00  0.00     0.293 HD
ENDBRANCH   2  20
BRANCH   6  22
ATOM     22  O   UNL     1      -2.827  15.589   6.825  1.00  0.00    -0.507 OA
ATOM     23  H   UNL     1      -2.537  16.124   6.015  1.00  0.00     0.293 HD
ENDBRANCH   6  22
BRANCH   8  24
ATOM     24  O   UNL     1      -6.372  13.160   4.597  1.00  0.00    -0.508 OA
ATOM     25  H   UNL     1      -7.163  13.567   4.111  1.00  0.00     0.293 HD
ENDBRANCH   8  24
TORSDOF 5
ENDMDL
MODEL 9
REMARK VINA RESULT:    -6.093      2.948      3.567
REMARK INTER + INTRA:          -7.460
REMARK INTER:                  -7.437
REMARK INTRA:                  -0.023
REMARK UNBOUND:                -0.299
REMARK SMILES O=c1c(O)c(-c2ccc(O)cc2)oc2cc(O)cc(O)c12
REMARK SMILES IDX 5 1 3 2 2 3 1 4 21 5 19 6 18 7 16 8 15 9 14 10 13 11 6 12
REMARK SMILES IDX 7 13 8 14 9 15 12 16 11 17 10 18 4 20 20 22 17 24
REMARK H PARENT 10 19 4 21 20 23 17 25
REMARK Flexibility Score: inf
ROOT
ATOM      1  C   UNL     1      -6.278  15.662   9.103  1.00  0.00     0.180 A 
ATOM      2  C   UNL     1      -5.626  14.711   8.294  1.00  0.00     0.208 A 
ATOM      3  C   UNL     1      -6.226  14.322   7.087  1.00  0.00     0.238 A 
ATOM      4  O   UNL     1      -5.646  13.479   6.350  1.00  0.00    -0.285 OA
ATOM      5  C   UNL     1      -7.472  14.869   6.719  1.00  0.00     0.111 A 
ATOM      6  C   UNL     1      -8.146  14.527   5.522  1.00  0.00     0.134 A 
ATOM      7  C   UNL     1      -9.388  15.111   5.232  1.00  0.00     0.093 A 
ATOM      8  C   UNL     1      -9.969  16.028   6.115  1.00  0.00     0.123 A 
ATOM      9  C   UNL     1      -9.308  16.369   7.296  1.00  0.00     0.094 A 
ATOM     10  C   UNL     1      -8.068  15.800   7.603  1.00  0.00     0.146 A 
ATOM     11  O   UNL     1      -7.459  16.146   8.731  1.00  0.00    -0.452 OA
ENDROOT
BRANCH   1  12
ATOM     12  C   UNL     1      -5.700  16.137  10.381  1.00  0.00     0.021 A 
ATOM     13  C   UNL     1      -6.495  16.143  11.540  1.00  0.00     0.016 A 
ATOM     14  C   UNL     1      -5.977  16.609  12.752  1.00  0.00     0.047 A 
ATOM     15  C   UNL     1      -4.665  17.088  12.819  1.00  0.00     0.115 A 
ATOM     16  C   UNL     1      -4.388  16.639  10.450  1.00  0.00     0.016 A 
ATOM     17  C   UNL     1      -3.872  17.106  11.664  1.00  0.00     0.047 A 
BRANCH  15  18
ATOM     18  O   UNL     1      -4.162  17.548  14.033  1.00  0.00    -0.508 OA
ATOM     19  H   UNL     1      -4.613  18.298  14.544  1.00  0.00     0.293 HD
ENDBRANCH  15  18
ENDBRANCH   1  12
BRANCH   2  20
ATOM     20  O   UNL     1      -4.416  14.145   8.706  1.00  0.00    -0.502 OA
ATOM     21  H   UNL     1      -3.522  14.583   8.522  1.00  0.00     0.293 HD
ENDBRANCH   2  20
BRANCH   6  22
ATOM     22  O   UNL     1      -7.593  13.616   4.622  1.00  0.00    -0.507 OA
ATOM     23  H   UNL     1      -8.098  13.303   3.801  1.00  0.00     0.293 HD
ENDBRANCH   6  22
BRANCH   8  24
ATOM     24  O   UNL     1     -11.202  16.607   5.827  1.00  0.00    -0.508 OA
ATOM     25  H   UNL     1     -11.523  16.726   4.873  1.00  0.00     0.293 HD
ENDBRANCH   8  24
TORSDOF 5
ENDMDL
