MODEL 1
REMARK VINA RESULT:    -4.284      0.000      0.000
REMARK INTER + INTRA:          -8.463
REMARK INTER:                  -6.788
REMARK INTRA:                  -1.674
REMARK UNBOUND:                -1.674
REMARK SMILES CCCCCCCCCCCC(=O)[O-]
REMARK SMILES IDX 7 1 8 2 9 3 10 4 11 5 12 6 13 7 14 8 6 9 5 10 4 11 3 12 2 13
REMARK SMILES IDX 1 14
REMARK H PARENT
REMARK Flexibility Score: inf
ROOT
ATOM      1  C   UNL     1      63.501  29.746  24.270  1.00  0.00     0.000 C 
ENDROOT
BRANCH   1   2
ATOM      2  C   UNL     1      62.006  29.647  24.615  1.00  0.00     0.000 C 
BRANCH   2   3
ATOM      3  C   UNL     1      61.466  28.213  24.493  1.00  0.00     0.000 C 
BRANCH   3   4
ATOM      4  C   UNL     1      60.788  27.726  25.785  1.00  0.00     0.006 C 
BRANCH   4   5
ATOM      5  C   UNL     1      61.805  27.251  26.831  1.00  0.00     0.053 C 
BRANCH   5   6
ATOM      6  C   UNL     1      61.827  28.146  28.032  1.00  0.00     0.041 C 
ATOM      7  O   UNL     1      62.914  28.634  28.439  1.00  0.00    -0.550 OA
ATOM      8  O   UNL     1      60.641  28.470  28.681  1.00  0.00    -0.550 OA
ENDBRANCH   5   6
ENDBRANCH   4   5
ENDBRANCH   3   4
ENDBRANCH   2   3
ENDBRANCH   1   2
BRANCH   1   9
ATOM      9  C   UNL     1      64.392  29.851  25.518  1.00  0.00     0.000 C 
BRANCH   9  10
ATOM     10  C   UNL     1      65.292  28.616  25.705  1.00  0.00    -0.000 C 
BRANCH  10  11
ATOM     11  C   UNL     1      65.292  27.695  24.475  1.00  0.00    -0.000 C 
BRANCH  11  12
ATOM     12  C   UNL     1      64.805  26.271  24.800  1.00  0.00    -0.000 C 
BRANCH  12  13
ATOM     13  C   UNL     1      63.888  25.700  23.706  1.00  0.00    -0.003 C 
ATOM     14  C   UNL     1      63.926  26.519  22.416  1.00  0.00     0.004 C 
ENDBRANCH  12  13
ENDBRANCH  11  12
ENDBRANCH  10  11
ENDBRANCH   9  10
ENDBRANCH   1   9
TORSDOF 10
ENDMDL
MODEL 2
REMARK VINA RESULT:    -4.245      2.598      4.503
REMARK INTER + INTRA:          -8.401
REMARK INTER:                  -7.029
REMARK INTRA:                  -1.372
REMARK UNBOUND:                -1.674
REMARK SMILES CCCCCCCCCCCC(=O)[O-]
REMARK SMILES IDX 7 1 8 2 9 3 10 4 11 5 12 6 13 7 14 8 6 9 5 10 4 11 3 12 2 13
REMARK SMILES IDX 1 14
REMARK H PARENT
REMARK Flexibility Score: inf
ROOT
ATOM      1  C   UNL     1      63.793  30.174  26.262  1.00  0.00     0.000 C 
ENDROOT
BRANCH   1   2
ATOM      2  C   UNL     1      65.089  29.373  26.475  1.00  0.00     0.000 C 
BRANCH   2   3
ATOM      3  C   UNL     1      65.407  28.442  25.295  1.00  0.00     0.000 C 
BRANCH   3   4
ATOM      4  C   UNL     1      64.596  27.135  25.339  1.00  0.00     0.006 C 
BRANCH   4   5
ATOM      5  C   UNL     1      64.924  26.209  24.161  1.00  0.00     0.053 C 
BRANCH   5   6
ATOM      6  C   UNL     1      63.732  25.979  23.284  1.00  0.00     0.041 C 
ATOM      7  O   UNL     1      62.972  24.997  23.493  1.00  0.00    -0.550 OA
ATOM      8  O   UNL     1      63.438  26.871  22.259  1.00  0.00    -0.550 OA
ENDBRANCH   5   6
ENDBRANCH   4   5
ENDBRANCH   3   4
ENDBRANCH   2   3
ENDBRANCH   1   2
BRANCH   1   9
ATOM      9  C   UNL     1      62.992  30.363  27.560  1.00  0.00     0.000 C 
BRANCH   9  10
ATOM     10  C   UNL     1      62.630  29.026  28.230  1.00  0.00    -0.000 C 
BRANCH  10  11
ATOM     11  C   UNL     1      61.274  28.478  27.756  1.00  0.00    -0.000 C 
BRANCH  11  12
ATOM     12  C   UNL     1      61.408  27.163  26.968  1.00  0.00    -0.000 C 
BRANCH  12  13
ATOM     13  C   UNL     1      60.615  27.183  25.651  1.00  0.00    -0.003 C 
ATOM     14  C   UNL     1      61.128  28.237  24.670  1.00  0.00     0.004 C 
ENDBRANCH  12  13
ENDBRANCH  11  12
ENDBRANCH  10  11
ENDBRANCH   9  10
ENDBRANCH   1   9
TORSDOF 10
ENDMDL
MODEL 3
REMARK VINA RESULT:    -4.195     12.213     13.808
REMARK INTER + INTRA:          -8.321
REMARK INTER:                  -6.850
REMARK INTRA:                  -1.471
REMARK UNBOUND:                -1.674
REMARK SMILES CCCCCCCCCCCC(=O)[O-]
REMARK SMILES IDX 7 1 8 2 9 3 10 4 11 5 12 6 13 7 14 8 6 9 5 10 4 11 3 12 2 13
REMARK SMILES IDX 1 14
REMARK H PARENT
REMARK Flexibility Score: inf
ROOT
ATOM      1  C   UNL     1      62.762  28.997  13.016  1.00  0.00     0.000 C 
ENDROOT
BRANCH   1   2
ATOM      2  C   UNL     1      63.449  30.322  13.386  1.00  0.00     0.000 C 
BRANCH   2   3
ATOM      3  C   UNL     1      63.061  31.471  12.441  1.00  0.00     0.000 C 
BRANCH   3   4
ATOM      4  C   UNL     1      62.620  32.735  13.200  1.00  0.00     0.006 C 
BRANCH   4   5
ATOM      5  C   UNL     1      61.108  32.975  13.094  1.00  0.00     0.053 C 
BRANCH   5   6
ATOM      6  C   UNL     1      60.369  32.393  14.260  1.00  0.00     0.041 C 
ATOM      7  O   UNL     1      59.208  31.930  14.106  1.00  0.00    -0.550 OA
ATOM      8  O   UNL     1      60.976  32.327  15.508  1.00  0.00    -0.550 OA
ENDBRANCH   5   6
ENDBRANCH   4   5
ENDBRANCH   3   4
ENDBRANCH   2   3
ENDBRANCH   1   2
BRANCH   1   9
ATOM      9  C   UNL     1      61.265  28.987  13.362  1.00  0.00     0.000 C 
BRANCH   9  10
ATOM     10  C   UNL     1      60.386  28.571  12.170  1.00  0.00    -0.000 C 
BRANCH  10  11
ATOM     11  C   UNL     1      60.146  29.725  11.183  1.00  0.00    -0.000 C 
BRANCH  11  12
ATOM     12  C   UNL     1      60.462  29.337   9.727  1.00  0.00    -0.000 C 
BRANCH  12  13
ATOM     13  C   UNL     1      61.566  28.272   9.629  1.00  0.00    -0.003 C 
ATOM     14  C   UNL     1      62.932  28.868   9.290  1.00  0.00     0.004 C 
ENDBRANCH  12  13
ENDBRANCH  11  12
ENDBRANCH  10  11
ENDBRANCH   9  10
ENDBRANCH   1   9
TORSDOF 10
ENDMDL
MODEL 4
REMARK VINA RESULT:    -4.166     12.566     14.347
REMARK INTER + INTRA:          -8.276
REMARK INTER:                  -6.795
REMARK INTRA:                  -1.481
REMARK UNBOUND:                -1.674
REMARK SMILES CCCCCCCCCCCC(=O)[O-]
REMARK SMILES IDX 7 1 8 2 9 3 10 4 11 5 12 6 13 7 14 8 6 9 5 10 4 11 3 12 2 13
REMARK SMILES IDX 1 14
REMARK H PARENT
REMARK Flexibility Score: inf
ROOT
ATOM      1  C   UNL     1      63.590  29.750  13.199  1.00  0.00     0.000 C 
ENDROOT
BRANCH   1   2
ATOM      2  C   UNL     1      62.550  28.632  13.017  1.00  0.00     0.000 C 
BRANCH   2   3
ATOM      3  C   UNL     1      61.123  29.093  13.352  1.00  0.00     0.000 C 
BRANCH   3   4
ATOM      4  C   UNL     1      60.117  28.756  12.238  1.00  0.00     0.006 C 
BRANCH   4   5
ATOM      5  C   UNL     1      60.339  29.605  10.980  1.00  0.00     0.053 C 
BRANCH   5   6
ATOM      6  C   UNL     1      60.625  28.757   9.779  1.00  0.00     0.041 C 
ATOM      7  O   UNL     1      61.792  28.336   9.565  1.00  0.00    -0.550 OA
ATOM      8  O   UNL     1      59.596  28.401   8.916  1.00  0.00    -0.550 OA
ENDBRANCH   5   6
ENDBRANCH   4   5
ENDBRANCH   3   4
ENDBRANCH   2   3
ENDBRANCH   1   2
BRANCH   1   9
ATOM      9  C   UNL     1      63.807  30.573  11.920  1.00  0.00     0.000 C 
BRANCH   9  10
ATOM     10  C   UNL     1      63.689  32.088  12.165  1.00  0.00    -0.000 C 
BRANCH  10  11
ATOM     11  C   UNL     1      62.819  32.421  13.388  1.00  0.00    -0.000 C 
BRANCH  11  12
ATOM     12  C   UNL     1      61.369  32.769  13.007  1.00  0.00    -0.000 C 
BRANCH  12  13
ATOM     13  C   UNL     1      60.451  32.888  14.234  1.00  0.00    -0.003 C 
ATOM     14  C   UNL     1      60.942  32.058  15.421  1.00  0.00     0.004 C 
ENDBRANCH  12  13
ENDBRANCH  11  12
ENDBRANCH  10  11
ENDBRANCH   9  10
ENDBRANCH   1   9
TORSDOF 10
ENDMDL
MODEL 5
REMARK VINA RESULT:    -4.163      1.594      2.659
REMARK INTER + INTRA:          -8.271
REMARK INTER:                  -7.100
REMARK INTRA:                  -1.171
REMARK UNBOUND:                -1.674
REMARK SMILES CCCCCCCCCCCC(=O)[O-]
REMARK SMILES IDX 7 1 8 2 9 3 10 4 11 5 12 6 13 7 14 8 6 9 5 10 4 11 3 12 2 13
REMARK SMILES IDX 1 14
REMARK H PARENT
REMARK Flexibility Score: inf
ROOT
ATOM      1  C   UNL     1      63.193  30.365  25.072  1.00  0.00     0.000 C 
ENDROOT
BRANCH   1   2
ATOM      2  C   UNL     1      63.863  30.028  26.415  1.00  0.00     0.000 C 
BRANCH   2   3
ATOM      3  C   UNL     1      62.949  30.313  27.617  1.00  0.00     0.000 C 
BRANCH   3   4
ATOM      4  C   UNL     1      62.681  29.057  28.465  1.00  0.00     0.006 C 
BRANCH   4   5
ATOM      5  C   UNL     1      61.182  28.818  28.689  1.00  0.00     0.053 C 
BRANCH   5   6
ATOM      6  C   UNL     1      60.854  27.357  28.747  1.00  0.00     0.041 C 
ATOM      7  O   UNL     1      59.714  26.979  29.124  1.00  0.00    -0.550 OA
ATOM      8  O   UNL     1      61.795  26.415  28.348  1.00  0.00    -0.550 OA
ENDBRANCH   5   6
ENDBRANCH   4   5
ENDBRANCH   3   4
ENDBRANCH   2   3
ENDBRANCH   1   2
BRANCH   1   9
ATOM      9  C   UNL     1      62.060  29.391  24.713  1.00  0.00     0.000 C 
BRANCH   9  10
ATOM     10  C   UNL     1      62.561  28.171  23.919  1.00  0.00    -0.000 C 
BRANCH  10  11
ATOM     11  C   UNL     1      62.449  26.862  24.717  1.00  0.00    -0.000 C 
BRANCH  11  12
ATOM     12  C   UNL     1      63.758  26.493  25.438  1.00  0.00    -0.000 C 
BRANCH  12  13
ATOM     13  C   UNL     1      65.001  26.770  24.578  1.00  0.00    -0.003 C 
ATOM     14  C   UNL     1      65.284  25.655  23.573  1.00  0.00     0.004 C 
ENDBRANCH  12  13
ENDBRANCH  11  12
ENDBRANCH  10  11
ENDBRANCH   9  10
ENDBRANCH   1   9
TORSDOF 10
ENDMDL
MODEL 6
REMARK VINA RESULT:    -4.125      2.294      5.065
REMARK INTER + INTRA:          -8.212
REMARK INTER:                  -6.873
REMARK INTRA:                  -1.339
REMARK UNBOUND:                -1.674
REMARK SMILES CCCCCCCCCCCC(=O)[O-]
REMARK SMILES IDX 7 1 8 2 9 3 10 4 11 5 12 6 13 7 14 8 6 9 5 10 4 11 3 12 2 13
REMARK SMILES IDX 1 14
REMARK H PARENT
REMARK Flexibility Score: inf
ROOT
ATOM      1  C   UNL     1      61.343  28.181  24.639  1.00  0.00     0.000 C 
ENDROOT
BRANCH   1   2
ATOM      2  C   UNL     1      62.103  29.383  25.227  1.00  0.00     0.000 C 
BRANCH   2   3
ATOM      3  C   UNL     1      63.544  29.483  24.703  1.00  0.00     0.000 C 
BRANCH   3   4
ATOM      4  C   UNL     1      64.541  28.687  25.564  1.00  0.00     0.006 C 
BRANCH   4   5
ATOM      5  C   UNL     1      65.478  27.820  24.714  1.00  0.00     0.053 C 
BRANCH   5   6
ATOM      6  C   UNL     1      64.945  26.431  24.538  1.00  0.00     0.041 C 
ATOM      7  O   UNL     1      64.128  25.957  25.369  1.00  0.00    -0.550 OA
ATOM      8  O   UNL     1      65.323  25.674  23.436  1.00  0.00    -0.550 OA
ENDBRANCH   5   6
ENDBRANCH   4   5
ENDBRANCH   3   4
ENDBRANCH   2   3
ENDBRANCH   1   2
BRANCH   1   9
ATOM      9  C   UNL     1      60.660  27.326  25.718  1.00  0.00     0.000 C 
BRANCH   9  10
ATOM     10  C   UNL     1      61.496  27.222  27.005  1.00  0.00    -0.000 C 
BRANCH  10  11
ATOM     11  C   UNL     1      60.678  27.546  28.267  1.00  0.00    -0.000 C 
BRANCH  11  12
ATOM     12  C   UNL     1      60.955  28.961  28.806  1.00  0.00    -0.000 C 
BRANCH  12  13
ATOM     13  C   UNL     1      62.457  29.251  28.952  1.00  0.00    -0.003 C 
ATOM     14  C   UNL     1      62.809  30.707  28.647  1.00  0.00     0.004 C 
ENDBRANCH  12  13
ENDBRANCH  11  12
ENDBRANCH  10  11
ENDBRANCH   9  10
ENDBRANCH   1   9
TORSDOF 10
ENDMDL
MODEL 7
REMARK VINA RESULT:    -4.092      2.973      5.267
REMARK INTER + INTRA:          -8.158
REMARK INTER:                  -6.800
REMARK INTRA:                  -1.358
REMARK UNBOUND:                -1.674
REMARK SMILES CCCCCCCCCCCC(=O)[O-]
REMARK SMILES IDX 7 1 8 2 9 3 10 4 11 5 12 6 13 7 14 8 6 9 5 10 4 11 3 12 2 13
REMARK SMILES IDX 1 14
REMARK H PARENT
REMARK Flexibility Score: inf
ROOT
ATOM      1  C   UNL     1      60.941  27.573  25.669  1.00  0.00     0.000 C 
ENDROOT
BRANCH   1   2
ATOM      2  C   UNL     1      62.140  27.138  24.810  1.00  0.00     0.000 C 
BRANCH   2   3
ATOM      3  C   UNL     1      63.266  26.509  25.645  1.00  0.00     0.000 C 
BRANCH   3   4
ATOM      4  C   UNL     1      64.664  26.847  25.099  1.00  0.00     0.006 C 
BRANCH   4   5
ATOM      5  C   UNL     1      65.110  25.872  24.003  1.00  0.00     0.053 C 
BRANCH   5   6
ATOM      6  C   UNL     1      65.589  26.591  22.778  1.00  0.00     0.041 C 
ATOM      7  O   UNL     1      65.492  27.843  22.701  1.00  0.00    -0.550 OA
ATOM      8  O   UNL     1      66.176  25.881  21.738  1.00  0.00    -0.550 OA
ENDBRANCH   5   6
ENDBRANCH   4   5
ENDBRANCH   3   4
ENDBRANCH   2   3
ENDBRANCH   1   2
BRANCH   1   9
ATOM      9  C   UNL     1      61.088  27.166  27.144  1.00  0.00     0.000 C 
BRANCH   9  10
ATOM     10  C   UNL     1      61.086  28.376  28.093  1.00  0.00    -0.000 C 
BRANCH  10  11
ATOM     11  C   UNL     1      62.505  28.849  28.451  1.00  0.00    -0.000 C 
BRANCH  11  12
ATOM     12  C   UNL     1      62.821  30.249  27.896  1.00  0.00    -0.000 C 
BRANCH  12  13
ATOM     13  C   UNL     1      63.947  30.228  26.851  1.00  0.00    -0.003 C 
ATOM     14  C   UNL     1      63.447  30.524  25.437  1.00  0.00     0.004 C 
ENDBRANCH  12  13
ENDBRANCH  11  12
ENDBRANCH  10  11
ENDBRANCH   9  10
ENDBRANCH   1   9
TORSDOF 10
ENDMDL
MODEL 8
REMARK VINA RESULT:    -4.006      1.690      2.572
REMARK INTER + INTRA:          -8.023
REMARK INTER:                  -7.057
REMARK INTRA:                  -0.965
REMARK UNBOUND:                -1.674
REMARK SMILES CCCCCCCCCCCC(=O)[O-]
REMARK SMILES IDX 7 1 8 2 9 3 10 4 11 5 12 6 13 7 14 8 6 9 5 10 4 11 3 12 2 13
REMARK SMILES IDX 1 14
REMARK H PARENT
REMARK Flexibility Score: inf
ROOT
ATOM      1  C   UNL     1      61.450  27.552  24.908  1.00  0.00     0.000 C 
ENDROOT
BRANCH   1   2
ATOM      2  C   UNL     1      61.913  27.112  26.308  1.00  0.00     0.000 C 
BRANCH   2   3
ATOM      3  C   UNL     1      60.833  27.325  27.381  1.00  0.00     0.000 C 
BRANCH   3   4
ATOM      4  C   UNL     1      61.072  28.597  28.213  1.00  0.00     0.006 C 
BRANCH   4   5
ATOM      5  C   UNL     1      62.563  28.851  28.469  1.00  0.00     0.053 C 
BRANCH   5   6
ATOM      6  C   UNL     1      62.942  30.273  28.188  1.00  0.00     0.041 C 
ATOM      7  O   UNL     1      63.477  30.581  27.091  1.00  0.00    -0.550 OA
ATOM      8  O   UNL     1      62.670  31.264  29.124  1.00  0.00    -0.550 OA
ENDBRANCH   5   6
ENDBRANCH   4   5
ENDBRANCH   3   4
ENDBRANCH   2   3
ENDBRANCH   1   2
BRANCH   1   9
ATOM      9  C   UNL     1      62.283  28.714  24.346  1.00  0.00     0.000 C 
BRANCH   9  10
ATOM     10  C   UNL     1      63.114  28.304  23.118  1.00  0.00    -0.000 C 
BRANCH  10  11
ATOM     11  C   UNL     1      64.627  28.443  23.356  1.00  0.00    -0.000 C 
BRANCH  11  12
ATOM     12  C   UNL     1      65.139  27.514  24.471  1.00  0.00    -0.000 C 
BRANCH  12  13
ATOM     13  C   UNL     1      64.988  26.027  24.114  1.00  0.00    -0.003 C 
ATOM     14  C   UNL     1      65.654  25.668  22.786  1.00  0.00     0.004 C 
ENDBRANCH  12  13
ENDBRANCH  11  12
ENDBRANCH  10  11
ENDBRANCH   9  10
ENDBRANCH   1   9
TORSDOF 10
ENDMDL
MODEL 9
REMARK VINA RESULT:    -3.972     13.051     14.554
REMARK INTER + INTRA:          -7.968
REMARK INTER:                  -6.969
REMARK INTRA:                  -0.999
REMARK UNBOUND:                -1.674
REMARK SMILES CCCCCCCCCCCC(=O)[O-]
REMARK SMILES IDX 7 1 8 2 9 3 10 4 11 5 12 6 13 7 14 8 6 9 5 10 4 11 3 12 2 13
REMARK SMILES IDX 1 14
REMARK H PARENT
REMARK Flexibility Score: inf
ROOT
ATOM      1  C   UNL     1      63.774  29.373  10.145  1.00  0.00     0.000 C 
ENDROOT
BRANCH   1   2
ATOM      2  C   UNL     1      62.502  29.555   9.301  1.00  0.00     0.000 C 
BRANCH   2   3
ATOM      3  C   UNL     1      61.472  28.440   9.539  1.00  0.00     0.000 C 
BRANCH   3   4
ATOM      4  C   UNL     1      60.074  28.989   9.874  1.00  0.00     0.006 C 
BRANCH   4   5
ATOM      5  C   UNL     1      60.021  29.623  11.270  1.00  0.00     0.053 C 
BRANCH   5   6
ATOM      6  C   UNL     1      59.957  28.587  12.351  1.00  0.00     0.041 C 
ATOM      7  O   UNL     1      60.982  28.315  13.029  1.00  0.00    -0.550 OA
ATOM      8  O   UNL     1      58.755  27.950  12.634  1.00  0.00    -0.550 OA
ENDBRANCH   5   6
ENDBRANCH   4   5
ENDBRANCH   3   4
ENDBRANCH   2   3
ENDBRANCH   1   2
BRANCH   1   9
ATOM      9  C   UNL     1      63.690  30.083  11.506  1.00  0.00     0.000 C 
BRANCH   9  10
ATOM     10  C   UNL     1      64.384  31.457  11.498  1.00  0.00    -0.000 C 
BRANCH  10  11
ATOM     11  C   UNL     1      63.725  32.455  12.465  1.00  0.00    -0.000 C 
BRANCH  11  12
ATOM     12  C   UNL     1      62.472  31.879  13.149  1.00  0.00    -0.000 C 
BRANCH  12  13
ATOM     13  C   UNL     1      61.235  32.771  12.957  1.00  0.00    -0.003 C 
ATOM     14  C   UNL     1      60.892  33.581  14.207  1.00  0.00     0.004 C 
ENDBRANCH  12  13
ENDBRANCH  11  12
ENDBRANCH  10  11
ENDBRANCH   9  10
ENDBRANCH   1   9
TORSDOF 10
ENDMDL
