MODEL 1
REMARK VINA RESULT:    23.015      0.000      0.000
REMARK INTER + INTRA:          26.784
REMARK INTER:                  27.051
REMARK INTRA:                  -0.268
REMARK UNBOUND:                -0.268
REMARK SMILES O=c1cc(-c2ccc(O)c(O)c2)oc2cc(O)cc(O)c12
REMARK SMILES IDX 4 1 3 2 2 3 1 4 21 5 19 6 18 7 16 8 15 9 14 10 13 11 5 12
REMARK SMILES IDX 6 13 7 14 8 15 12 16 10 17 9 18 11 20 20 22 17 24
REMARK H PARENT 9 19 11 21 20 23 17 25
REMARK Flexibility Score: inf
ROOT
ATOM      1  C   UNL     1      -6.203  -7.546  16.456  1.00  0.00     0.138 A 
ATOM      2  C   UNL     1      -5.823  -8.468  17.441  1.00  0.00     0.100 A 
ATOM      3  C   UNL     1      -6.094  -9.825  17.258  1.00  0.00     0.197 A 
ATOM      4  O   UNL     1      -5.797 -10.620  18.187  1.00  0.00    -0.289 OA
ATOM      5  C   UNL     1      -6.723 -10.262  16.067  1.00  0.00     0.107 A 
ATOM      6  C   UNL     1      -7.012 -11.624  15.755  1.00  0.00     0.134 A 
ATOM      7  C   UNL     1      -7.743 -11.926  14.598  1.00  0.00     0.093 A 
ATOM      8  C   UNL     1      -8.140 -10.923  13.714  1.00  0.00     0.123 A 
ATOM      9  C   UNL     1      -7.815  -9.593  13.984  1.00  0.00     0.094 A 
ATOM     10  C   UNL     1      -7.118  -9.256  15.145  1.00  0.00     0.146 A 
ATOM     11  O   UNL     1      -6.841  -7.976  15.373  1.00  0.00    -0.456 OA
ENDROOT
BRANCH   1  12
ATOM     12  C   UNL     1      -5.937  -6.092  16.599  1.00  0.00     0.021 A 
ATOM     13  C   UNL     1      -4.658  -5.548  16.374  1.00  0.00     0.016 A 
ATOM     14  C   UNL     1      -4.439  -4.174  16.506  1.00  0.00     0.051 A 
ATOM     15  C   UNL     1      -5.488  -3.320  16.855  1.00  0.00     0.157 A 
ATOM     16  C   UNL     1      -6.992  -5.225  16.937  1.00  0.00     0.062 A 
ATOM     17  C   UNL     1      -6.772  -3.846  17.070  1.00  0.00     0.158 A 
BRANCH  15  18
ATOM     18  O   UNL     1      -5.237  -1.955  16.980  1.00  0.00    -0.504 OA
ATOM     19  H   UNL     1      -4.335  -1.598  17.273  1.00  0.00     0.293 HD
ENDBRANCH  15  18
BRANCH  17  20
ATOM     20  O   UNL     1      -7.825  -3.000  17.415  1.00  0.00    -0.504 OA
ATOM     21  H   UNL     1      -8.440  -3.207  18.192  1.00  0.00     0.293 HD
ENDBRANCH  17  20
ENDBRANCH   1  12
BRANCH   6  22
ATOM     22  O   UNL     1      -6.588 -12.710  16.526  1.00  0.00    -0.507 OA
ATOM     23  H   UNL     1      -7.139 -13.532  16.717  1.00  0.00     0.293 HD
ENDBRANCH   6  22
BRANCH   8  24
ATOM     24  O   UNL     1      -8.851 -11.262  12.566  1.00  0.00    -0.508 OA
ATOM     25  H   UNL     1      -9.745 -10.836  12.350  1.00  0.00     0.293 HD
ENDBRANCH   8  24
TORSDOF 5
ENDMDL
MODEL 2
REMARK VINA RESULT:    23.483      1.355      7.087
REMARK INTER + INTRA:          27.334
REMARK INTER:                  27.597
REMARK INTRA:                  -0.264
REMARK UNBOUND:                -0.268
REMARK SMILES O=c1cc(-c2ccc(O)c(O)c2)oc2cc(O)cc(O)c12
REMARK SMILES IDX 4 1 3 2 2 3 1 4 21 5 19 6 18 7 16 8 15 9 14 10 13 11 5 12
REMARK SMILES IDX 6 13 7 14 8 15 12 16 10 17 9 18 11 20 20 22 17 24
REMARK H PARENT 9 19 11 21 20 23 17 25
REMARK Flexibility Score: inf
ROOT
ATOM      1  C   UNL     1      -6.289  -7.250  16.389  1.00  0.00     0.138 A 
ATOM      2  C   UNL     1      -5.071  -6.606  16.134  1.00  0.00     0.100 A 
ATOM      3  C   UNL     1      -4.966  -5.227  16.321  1.00  0.00     0.197 A 
ATOM      4  O   UNL     1      -3.878  -4.668  16.025  1.00  0.00    -0.289 OA
ATOM      5  C   UNL     1      -6.080  -4.495  16.796  1.00  0.00     0.107 A 
ATOM      6  C   UNL     1      -6.078  -3.094  17.063  1.00  0.00     0.134 A 
ATOM      7  C   UNL     1      -7.274  -2.457  17.419  1.00  0.00     0.093 A 
ATOM      8  C   UNL     1      -8.456  -3.180  17.577  1.00  0.00     0.123 A 
ATOM      9  C   UNL     1      -8.458  -4.560  17.370  1.00  0.00     0.094 A 
ATOM     10  C   UNL     1      -7.290  -5.218  16.981  1.00  0.00     0.146 A 
ATOM     11  O   UNL     1      -7.336  -6.532  16.781  1.00  0.00    -0.456 OA
ENDROOT
BRANCH   1  12
ATOM     12  C   UNL     1      -6.455  -8.715  16.207  1.00  0.00     0.021 A 
ATOM     13  C   UNL     1      -6.143  -9.627  17.234  1.00  0.00     0.016 A 
ATOM     14  C   UNL     1      -6.319 -11.000  17.038  1.00  0.00     0.051 A 
ATOM     15  C   UNL     1      -6.814 -11.485  15.825  1.00  0.00     0.157 A 
ATOM     16  C   UNL     1      -6.965  -9.209  14.993  1.00  0.00     0.062 A 
ATOM     17  C   UNL     1      -7.141 -10.587  14.797  1.00  0.00     0.158 A 
BRANCH  15  18
ATOM     18  O   UNL     1      -6.976 -12.860  15.661  1.00  0.00    -0.504 OA
ATOM     19  H   UNL     1      -7.304 -13.263  14.790  1.00  0.00     0.293 HD
ENDBRANCH  15  18
BRANCH  17  20
ATOM     20  O   UNL     1      -7.638 -11.063  13.585  1.00  0.00    -0.504 OA
ATOM     21  H   UNL     1      -8.427 -10.625  13.126  1.00  0.00     0.293 HD
ENDBRANCH  17  20
ENDBRANCH   1  12
BRANCH   6  22
ATOM     22  O   UNL     1      -4.934  -2.292  17.017  1.00  0.00    -0.507 OA
ATOM     23  H   UNL     1      -4.223  -2.261  17.731  1.00  0.00     0.293 HD
ENDBRANCH   6  22
BRANCH   8  24
ATOM     24  O   UNL     1      -9.623  -2.516  17.947  1.00  0.00    -0.508 OA
ATOM     25  H   UNL     1     -10.384  -2.377  17.293  1.00  0.00     0.293 HD
ENDBRANCH   8  24
TORSDOF 5
ENDMDL
MODEL 3
REMARK VINA RESULT:    23.784      1.169      2.648
REMARK INTER + INTRA:          27.688
REMARK INTER:                  27.952
REMARK INTRA:                  -0.264
REMARK UNBOUND:                -0.268
REMARK SMILES O=c1cc(-c2ccc(O)c(O)c2)oc2cc(O)cc(O)c12
REMARK SMILES IDX 4 1 3 2 2 3 1 4 21 5 19 6 18 7 16 8 15 9 14 10 13 11 5 12
REMARK SMILES IDX 6 13 7 14 8 15 12 16 10 17 9 18 11 20 20 22 17 24
REMARK H PARENT 9 19 11 21 20 23 17 25
REMARK Flexibility Score: inf
ROOT
ATOM      1  C   UNL     1      -6.520  -7.750  15.838  1.00  0.00     0.138 A 
ATOM      2  C   UNL     1      -7.412  -8.030  14.793  1.00  0.00     0.100 A 
ATOM      3  C   UNL     1      -7.698  -9.357  14.467  1.00  0.00     0.197 A 
ATOM      4  O   UNL     1      -8.453  -9.577  13.485  1.00  0.00    -0.289 OA
ATOM      5  C   UNL     1      -7.112 -10.407  15.213  1.00  0.00     0.107 A 
ATOM      6  C   UNL     1      -7.361 -11.795  14.997  1.00  0.00     0.134 A 
ATOM      7  C   UNL     1      -6.634 -12.748  15.721  1.00  0.00     0.093 A 
ATOM      8  C   UNL     1      -5.712 -12.364  16.694  1.00  0.00     0.123 A 
ATOM      9  C   UNL     1      -5.498 -11.009  16.951  1.00  0.00     0.094 A 
ATOM     10  C   UNL     1      -6.183 -10.035  16.222  1.00  0.00     0.146 A 
ATOM     11  O   UNL     1      -5.941  -8.754  16.487  1.00  0.00    -0.456 OA
ENDROOT
BRANCH   1  12
ATOM     12  C   UNL     1      -6.182  -6.357  16.228  1.00  0.00     0.021 A 
ATOM     13  C   UNL     1      -4.871  -5.855  16.111  1.00  0.00     0.016 A 
ATOM     14  C   UNL     1      -4.584  -4.536  16.475  1.00  0.00     0.051 A 
ATOM     15  C   UNL     1      -5.594  -3.697  16.952  1.00  0.00     0.157 A 
ATOM     16  C   UNL     1      -7.196  -5.503  16.696  1.00  0.00     0.062 A 
ATOM     17  C   UNL     1      -6.907  -4.180  17.062  1.00  0.00     0.158 A 
BRANCH  15  18
ATOM     18  O   UNL     1      -5.275  -2.387  17.308  1.00  0.00    -0.504 OA
ATOM     19  H   UNL     1      -4.527  -2.173  17.958  1.00  0.00     0.293 HD
ENDBRANCH  15  18
BRANCH  17  20
ATOM     20  O   UNL     1      -7.921  -3.348  17.534  1.00  0.00    -0.504 OA
ATOM     21  H   UNL     1      -8.703  -3.080  16.950  1.00  0.00     0.293 HD
ENDBRANCH  17  20
ENDBRANCH   1  12
BRANCH   6  22
ATOM     22  O   UNL     1      -8.323 -12.286  14.109  1.00  0.00    -0.507 OA
ATOM     23  H   UNL     1      -8.642 -11.807  13.282  1.00  0.00     0.293 HD
ENDBRANCH   6  22
BRANCH   8  24
ATOM     24  O   UNL     1      -5.017 -13.339  17.405  1.00  0.00    -0.508 OA
ATOM     25  H   UNL     1      -4.149 -13.731  17.060  1.00  0.00     0.293 HD
ENDBRANCH   8  24
TORSDOF 5
ENDMDL
