MODEL 1
REMARK VINA RESULT:    -4.701      0.000      0.000
REMARK INTER + INTRA:          -4.838
REMARK INTER:                  -4.838
REMARK INTRA:                   0.000
REMARK UNBOUND:                 0.000
REMARK SMILES CC1(C)[C@@H]2CC[C@@](C)(C2)[C@H]1O
REMARK SMILES IDX 1 1 2 2 4 3 5 4 6 5 7 6 9 7 10 8 8 9 3 10 11 11
REMARK H PARENT 11 12
REMARK Flexibility Score: inf
ROOT
ATOM      1  C   UNL     1     183.186 179.524 185.482  1.00  0.00     0.014 C 
ATOM      2  C   UNL     1     181.724 180.006 185.653  1.00  0.00    -0.006 C 
ATOM      3  C   UNL     1     180.671 178.847 185.588  1.00  0.00    -0.002 C 
ATOM      4  C   UNL     1     180.918 177.933 184.369  1.00  0.00     0.005 C 
ATOM      5  C   UNL     1     180.573 178.846 183.183  1.00  0.00     0.010 C 
ATOM      6  C   UNL     1     180.063 180.131 183.877  1.00  0.00    -0.006 C 
ATOM      7  C   UNL     1     179.419 179.569 185.126  1.00  0.00     0.013 C 
ATOM      8  C   UNL     1     181.281 180.909 184.452  1.00  0.00     0.126 C 
ATOM      9  C   UNL     1     179.115 180.956 182.998  1.00  0.00     0.014 C 
ATOM     10  C   UNL     1     181.632 180.720 187.027  1.00  0.00     0.014 C 
ENDROOT
BRANCH   8  11
ATOM     11  O   UNL     1     180.902 182.195 184.883  1.00  0.00    -0.392 OA
ATOM     12  H   UNL     1     180.301 182.569 184.187  1.00  0.00     0.211 HD
ENDBRANCH   8  11
TORSDOF 1
ENDMDL
MODEL 2
REMARK VINA RESULT:    -4.490      1.448      3.063
REMARK INTER + INTRA:          -4.621
REMARK INTER:                  -4.621
REMARK INTRA:                   0.000
REMARK UNBOUND:                 0.000
REMARK SMILES CC1(C)[C@@H]2CC[C@@](C)(C2)[C@H]1O
REMARK SMILES IDX 1 1 2 2 4 3 5 4 6 5 7 6 9 7 10 8 8 9 3 10 11 11
REMARK H PARENT 11 12
REMARK Flexibility Score: inf
ROOT
ATOM      1  C   UNL     1     181.211 179.244 182.184  1.00  0.00     0.014 C 
ATOM      2  C   UNL     1     180.827 178.981 183.661  1.00  0.00    -0.006 C 
ATOM      3  C   UNL     1     179.369 179.432 184.018  1.00  0.00    -0.002 C 
ATOM      4  C   UNL     1     179.085 180.863 183.514  1.00  0.00     0.005 C 
ATOM      5  C   UNL     1     179.993 181.724 184.405  1.00  0.00     0.010 C 
ATOM      6  C   UNL     1     180.596 180.687 185.383  1.00  0.00    -0.006 C 
ATOM      7  C   UNL     1     179.464 179.692 185.510  1.00  0.00     0.013 C 
ATOM      8  C   UNL     1     181.682 179.863 184.634  1.00  0.00     0.126 C 
ATOM      9  C   UNL     1     181.044 181.302 186.715  1.00  0.00     0.014 C 
ATOM     10  C   UNL     1     180.981 177.458 183.914  1.00  0.00     0.014 C 
ENDROOT
BRANCH   8  11
ATOM     11  O   UNL     1     182.425 179.072 185.531  1.00  0.00    -0.392 OA
ATOM     12  H   UNL     1     182.659 178.233 185.054  1.00  0.00     0.211 HD
ENDBRANCH   8  11
TORSDOF 1
ENDMDL
MODEL 3
REMARK VINA RESULT:    -4.464      1.208      3.238
REMARK INTER + INTRA:          -4.594
REMARK INTER:                  -4.594
REMARK INTRA:                   0.000
REMARK UNBOUND:                 0.000
REMARK SMILES CC1(C)[C@@H]2CC[C@@](C)(C2)[C@H]1O
REMARK SMILES IDX 1 1 2 2 4 3 5 4 6 5 7 6 9 7 10 8 8 9 3 10 11 11
REMARK H PARENT 11 12
REMARK Flexibility Score: inf
ROOT
ATOM      1  C   UNL     1     180.559 177.908 183.820  1.00  0.00     0.014 C 
ATOM      2  C   UNL     1     180.457 179.406 184.199  1.00  0.00    -0.006 C 
ATOM      3  C   UNL     1     181.791 180.199 183.978  1.00  0.00    -0.002 C 
ATOM      4  C   UNL     1     182.996 179.452 184.589  1.00  0.00     0.005 C 
ATOM      5  C   UNL     1     182.726 179.548 186.098  1.00  0.00     0.010 C 
ATOM      6  C   UNL     1     181.460 180.436 186.164  1.00  0.00    -0.006 C 
ATOM      7  C   UNL     1     181.659 181.342 184.969  1.00  0.00     0.013 C 
ATOM      8  C   UNL     1     180.228 179.587 185.738  1.00  0.00     0.126 C 
ATOM      9  C   UNL     1     181.314 181.179 187.498  1.00  0.00     0.014 C 
ATOM     10  C   UNL     1     179.330 180.025 183.331  1.00  0.00     0.014 C 
ENDROOT
BRANCH   8  11
ATOM     11  O   UNL     1     179.026 180.271 186.006  1.00  0.00    -0.392 OA
ATOM     12  H   UNL     1     178.365 179.591 186.302  1.00  0.00     0.211 HD
ENDBRANCH   8  11
TORSDOF 1
ENDMDL
MODEL 4
REMARK VINA RESULT:    -4.414      1.436      2.998
REMARK INTER + INTRA:          -4.543
REMARK INTER:                  -4.543
REMARK INTRA:                   0.000
REMARK UNBOUND:                 0.000
REMARK SMILES CC1(C)[C@@H]2CC[C@@](C)(C2)[C@H]1O
REMARK SMILES IDX 1 1 2 2 4 3 5 4 6 5 7 6 9 7 10 8 8 9 3 10 11 11
REMARK H PARENT 11 12
REMARK Flexibility Score: inf
ROOT
ATOM      1  C   UNL     1     181.346 182.576 184.273  1.00  0.00     0.014 C 
ATOM      2  C   UNL     1     180.325 181.412 184.249  1.00  0.00    -0.006 C 
ATOM      3  C   UNL     1     179.939 180.889 185.675  1.00  0.00    -0.002 C 
ATOM      4  C   UNL     1     181.192 180.639 186.540  1.00  0.00     0.005 C 
ATOM      5  C   UNL     1     181.851 179.438 185.844  1.00  0.00     0.010 C 
ATOM      6  C   UNL     1     180.831 179.081 184.737  1.00  0.00    -0.006 C 
ATOM      7  C   UNL     1     179.521 179.457 185.395  1.00  0.00     0.013 C 
ATOM      8  C   UNL     1     180.943 180.130 183.594  1.00  0.00     0.126 C 
ATOM      9  C   UNL     1     180.912 177.616 184.291  1.00  0.00     0.014 C 
ATOM     10  C   UNL     1     179.057 181.927 183.519  1.00  0.00     0.014 C 
ENDROOT
BRANCH   8  11
ATOM     11  O   UNL     1     180.211 179.724 182.461  1.00  0.00    -0.392 OA
ATOM     12  H   UNL     1     180.660 178.915 182.100  1.00  0.00     0.211 HD
ENDBRANCH   8  11
TORSDOF 1
ENDMDL
MODEL 5
REMARK VINA RESULT:    -4.398      2.392      4.101
REMARK INTER + INTRA:          -4.526
REMARK INTER:                  -4.526
REMARK INTRA:                   0.000
REMARK UNBOUND:                 0.000
REMARK SMILES CC1(C)[C@@H]2CC[C@@](C)(C2)[C@H]1O
REMARK SMILES IDX 1 1 2 2 4 3 5 4 6 5 7 6 9 7 10 8 8 9 3 10 11 11
REMARK H PARENT 11 12
REMARK Flexibility Score: inf
ROOT
ATOM      1  C   UNL     1     181.561 181.148 183.232  1.00  0.00     0.014 C 
ATOM      2  C   UNL     1     180.041 181.427 183.341  1.00  0.00    -0.006 C 
ATOM      3  C   UNL     1     179.412 181.986 182.019  1.00  0.00    -0.002 C 
ATOM      4  C   UNL     1     180.249 183.150 181.448  1.00  0.00     0.005 C 
ATOM      5  C   UNL     1     180.039 184.262 182.486  1.00  0.00     0.010 C 
ATOM      6  C   UNL     1     179.016 183.632 183.461  1.00  0.00    -0.006 C 
ATOM      7  C   UNL     1     178.207 182.755 182.531  1.00  0.00     0.013 C 
ATOM      8  C   UNL     1     179.749 182.588 184.351  1.00  0.00     0.126 C 
ATOM      9  C   UNL     1     178.186 184.674 184.222  1.00  0.00     0.014 C 
ATOM     10  C   UNL     1     179.354 180.089 183.723  1.00  0.00     0.014 C 
ENDROOT
BRANCH   8  11
ATOM     11  O   UNL     1     178.924 182.158 185.409  1.00  0.00    -0.392 OA
ATOM     12  H   UNL     1     179.524 181.859 186.142  1.00  0.00     0.211 HD
ENDBRANCH   8  11
TORSDOF 1
ENDMDL
MODEL 6
REMARK VINA RESULT:    -4.375      2.392      4.375
REMARK INTER + INTRA:          -4.503
REMARK INTER:                  -4.503
REMARK INTRA:                   0.000
REMARK UNBOUND:                 0.000
REMARK SMILES CC1(C)[C@@H]2CC[C@@](C)(C2)[C@H]1O
REMARK SMILES IDX 1 1 2 2 4 3 5 4 6 5 7 6 9 7 10 8 8 9 3 10 11 11
REMARK H PARENT 11 12
REMARK Flexibility Score: inf
ROOT
ATOM      1  C   UNL     1     180.183 183.603 181.644  1.00  0.00     0.014 C 
ATOM      2  C   UNL     1     179.344 183.109 182.849  1.00  0.00    -0.006 C 
ATOM      3  C   UNL     1     179.834 183.675 184.226  1.00  0.00    -0.002 C 
ATOM      4  C   UNL     1     181.361 183.518 184.386  1.00  0.00     0.005 C 
ATOM      5  C   UNL     1     181.536 181.996 184.500  1.00  0.00     0.010 C 
ATOM      6  C   UNL     1     180.076 181.483 184.505  1.00  0.00    -0.006 C 
ATOM      7  C   UNL     1     179.355 182.616 185.202  1.00  0.00     0.013 C 
ATOM      8  C   UNL     1     179.509 181.566 183.059  1.00  0.00     0.126 C 
ATOM      9  C   UNL     1     179.917 180.121 185.193  1.00  0.00     0.014 C 
ATOM     10  C   UNL     1     177.876 183.544 182.596  1.00  0.00     0.014 C 
ENDROOT
BRANCH   8  11
ATOM     11  O   UNL     1     178.275 180.895 182.960  1.00  0.00    -0.392 OA
ATOM     12  H   UNL     1     177.668 181.303 183.632  1.00  0.00     0.211 HD
ENDBRANCH   8  11
TORSDOF 1
ENDMDL
MODEL 7
REMARK VINA RESULT:    -4.270      1.388      3.448
REMARK INTER + INTRA:          -4.394
REMARK INTER:                  -4.394
REMARK INTRA:                   0.000
REMARK UNBOUND:                 0.000
REMARK SMILES CC1(C)[C@@H]2CC[C@@](C)(C2)[C@H]1O
REMARK SMILES IDX 1 1 2 2 4 3 5 4 6 5 7 6 9 7 10 8 8 9 3 10 11 11
REMARK H PARENT 11 12
REMARK Flexibility Score: inf
ROOT
ATOM      1  C   UNL     1     179.297 180.844 183.464  1.00  0.00     0.014 C 
ATOM      2  C   UNL     1     180.489 179.919 183.115  1.00  0.00    -0.006 C 
ATOM      3  C   UNL     1     180.434 178.529 183.837  1.00  0.00    -0.002 C 
ATOM      4  C   UNL     1     180.154 178.691 185.346  1.00  0.00     0.005 C 
ATOM      5  C   UNL     1     181.441 179.352 185.861  1.00  0.00     0.010 C 
ATOM      6  C   UNL     1     182.339 179.380 184.602  1.00  0.00    -0.006 C 
ATOM      7  C   UNL     1     181.897 178.126 183.882  1.00  0.00     0.013 C 
ATOM      8  C   UNL     1     181.838 180.506 183.653  1.00  0.00     0.126 C 
ATOM      9  C   UNL     1     183.837 179.420 184.931  1.00  0.00     0.014 C 
ATOM     10  C   UNL     1     180.476 179.711 181.577  1.00  0.00     0.014 C 
ENDROOT
BRANCH   8  11
ATOM     11  O   UNL     1     182.756 180.733 182.609  1.00  0.00    -0.392 OA
ATOM     12  H   UNL     1     182.595 180.034 181.923  1.00  0.00     0.211 HD
ENDBRANCH   8  11
TORSDOF 1
ENDMDL
MODEL 8
REMARK VINA RESULT:    -4.130      1.599      3.168
REMARK INTER + INTRA:          -4.250
REMARK INTER:                  -4.250
REMARK INTRA:                   0.000
REMARK UNBOUND:                 0.000
REMARK SMILES CC1(C)[C@@H]2CC[C@@](C)(C2)[C@H]1O
REMARK SMILES IDX 1 1 2 2 4 3 5 4 6 5 7 6 9 7 10 8 8 9 3 10 11 11
REMARK H PARENT 11 12
REMARK Flexibility Score: inf
ROOT
ATOM      1  C   UNL     1     180.875 179.308 181.198  1.00  0.00     0.014 C 
ATOM      2  C   UNL     1     180.722 180.289 182.387  1.00  0.00    -0.006 C 
ATOM      3  C   UNL     1     181.941 180.272 183.372  1.00  0.00    -0.002 C 
ATOM      4  C   UNL     1     182.327 178.829 183.762  1.00  0.00     0.005 C 
ATOM      5  C   UNL     1     181.130 178.374 184.609  1.00  0.00     0.010 C 
ATOM      6  C   UNL     1     180.263 179.652 184.692  1.00  0.00    -0.006 C 
ATOM      7  C   UNL     1     181.315 180.739 184.674  1.00  0.00     0.013 C 
ATOM      8  C   UNL     1     179.545 179.862 183.328  1.00  0.00     0.126 C 
ATOM      9  C   UNL     1     179.349 179.684 185.923  1.00  0.00     0.014 C 
ATOM     10  C   UNL     1     180.550 181.711 181.791  1.00  0.00     0.014 C 
ENDROOT
BRANCH   8  11
ATOM     11  O   UNL     1     178.565 180.869 183.421  1.00  0.00    -0.392 OA
ATOM     12  H   UNL     1     177.759 180.535 182.946  1.00  0.00     0.211 HD
ENDBRANCH   8  11
TORSDOF 1
ENDMDL
MODEL 9
REMARK VINA RESULT:    -4.064      1.873      3.052
REMARK INTER + INTRA:          -4.183
REMARK INTER:                  -4.183
REMARK INTRA:                   0.000
REMARK UNBOUND:                 0.000
REMARK SMILES CC1(C)[C@@H]2CC[C@@](C)(C2)[C@H]1O
REMARK SMILES IDX 1 1 2 2 4 3 5 4 6 5 7 6 9 7 10 8 8 9 3 10 11 11
REMARK H PARENT 11 12
REMARK Flexibility Score: inf
ROOT
ATOM      1  C   UNL     1     181.731 180.272 183.960  1.00  0.00     0.014 C 
ATOM      2  C   UNL     1     180.428 181.109 183.973  1.00  0.00    -0.006 C 
ATOM      3  C   UNL     1     179.438 180.744 182.814  1.00  0.00    -0.002 C 
ATOM      4  C   UNL     1     180.163 180.687 181.453  1.00  0.00     0.005 C 
ATOM      5  C   UNL     1     180.535 182.156 181.205  1.00  0.00     0.010 C 
ATOM      6  C   UNL     1     179.876 182.883 182.400  1.00  0.00    -0.006 C 
ATOM      7  C   UNL     1     178.650 182.029 182.640  1.00  0.00     0.013 C 
ATOM      8  C   UNL     1     180.722 182.620 183.678  1.00  0.00     0.126 C 
ATOM      9  C   UNL     1     179.566 184.358 182.113  1.00  0.00     0.014 C 
ATOM     10  C   UNL     1     179.741 180.871 185.344  1.00  0.00     0.014 C 
ENDROOT
BRANCH   8  11
ATOM     11  O   UNL     1     180.305 183.445 184.740  1.00  0.00    -0.392 OA
ATOM     12  H   UNL     1     179.482 183.039 185.118  1.00  0.00     0.211 HD
ENDBRANCH   8  11
TORSDOF 1
ENDMDL
