MODEL 1
REMARK VINA RESULT:    -4.386      0.000      0.000
REMARK INTER + INTRA:         -16.660
REMARK INTER:                 -11.565
REMARK INTRA:                  -5.095
REMARK UNBOUND:                -5.095
REMARK SMILES CCCCCCCCCCCCCCCCCCCCCCCCCCCCCC(=O)[O-]
REMARK SMILES IDX 16 1 17 2 18 3 19 4 20 5 21 6 22 7 23 8 24 9 25 10 26 11
REMARK SMILES IDX 27 12 28 13 29 14 30 15 31 16 32 17 15 18 14 19 13 20 12 21
REMARK SMILES IDX 11 22 10 23 9 24 8 25 7 26 6 27 5 28 4 29 3 30 2 31 1 32
REMARK H PARENT
REMARK Flexibility Score: inf
ROOT
ATOM      1  C   UNL     1      39.707  34.284  26.646  1.00  0.00     0.000 C 
ENDROOT
BRANCH   1   2
ATOM      2  C   UNL     1      39.900  35.499  25.716  1.00  0.00     0.000 C 
BRANCH   2   3
ATOM      3  C   UNL     1      38.930  35.532  24.519  1.00  0.00     0.000 C 
BRANCH   3   4
ATOM      4  C   UNL     1      37.657  36.369  24.730  1.00  0.00     0.000 C 
BRANCH   4   5
ATOM      5  C   UNL     1      36.371  35.532  24.628  1.00  0.00     0.000 C 
BRANCH   5   6
ATOM      6  C   UNL     1      35.218  36.095  25.482  1.00  0.00     0.000 C 
BRANCH   6   7
ATOM      7  C   UNL     1      34.861  35.257  26.727  1.00  0.00     0.000 C 
BRANCH   7   8
ATOM      8  C   UNL     1      35.960  34.293  27.214  1.00  0.00     0.000 C 
BRANCH   8   9
ATOM      9  C   UNL     1      36.667  34.746  28.510  1.00  0.00     0.000 C 
BRANCH   9  10
ATOM     10  C   UNL     1      35.873  35.821  29.272  1.00  0.00     0.000 C 
BRANCH  10  11
ATOM     11  C   UNL     1      36.747  36.999  29.729  1.00  0.00     0.000 C 
BRANCH  11  12
ATOM     12  C   UNL     1      37.678  37.544  28.625  1.00  0.00     0.000 C 
BRANCH  12  13
ATOM     13  C   UNL     1      39.125  37.724  29.121  1.00  0.00     0.006 C 
BRANCH  13  14
ATOM     14  C   UNL     1      39.532  39.202  29.209  1.00  0.00     0.053 C 
BRANCH  14  15
ATOM     15  C   UNL     1      38.832  39.905  30.330  1.00  0.00     0.041 C 
ATOM     16  O   UNL     1      39.166  39.682  31.524  1.00  0.00    -0.550 OA
ATOM     17  O   UNL     1      37.838  40.833  30.056  1.00  0.00    -0.550 OA
ENDBRANCH  14  15
ENDBRANCH  13  14
ENDBRANCH  12  13
ENDBRANCH  11  12
ENDBRANCH  10  11
ENDBRANCH   9  10
ENDBRANCH   8   9
ENDBRANCH   7   8
ENDBRANCH   6   7
ENDBRANCH   5   6
ENDBRANCH   4   5
ENDBRANCH   3   4
ENDBRANCH   2   3
ENDBRANCH   1   2
BRANCH   1  18
ATOM     18  C   UNL     1      39.836  32.944  25.906  1.00  0.00     0.000 C 
BRANCH  18  19
ATOM     19  C   UNL     1      38.568  32.097  26.078  1.00  0.00     0.000 C 
BRANCH  19  20
ATOM     20  C   UNL     1      38.267  31.291  24.806  1.00  0.00     0.000 C 
BRANCH  20  21
ATOM     21  C   UNL     1      37.062  31.842  24.021  1.00  0.00     0.000 C 
BRANCH  21  22
ATOM     22  C   UNL     1      36.213  30.774  23.304  1.00  0.00     0.000 C 
BRANCH  22  23
ATOM     23  C   UNL     1      34.731  30.819  23.705  1.00  0.00     0.000 C 
BRANCH  23  24
ATOM     24  C   UNL     1      34.467  31.961  24.694  1.00  0.00    -0.000 C 
BRANCH  24  25
ATOM     25  C   UNL     1      33.561  33.038  24.075  1.00  0.00    -0.000 C 
BRANCH  25  26
ATOM     26  C   UNL     1      33.123  32.702  22.635  1.00  0.00    -0.000 C 
BRANCH  26  27
ATOM     27  C   UNL     1      33.449  33.790  21.596  1.00  0.00    -0.000 C 
BRANCH  27  28
ATOM     28  C   UNL     1      33.856  33.207  20.231  1.00  0.00    -0.000 C 
BRANCH  28  29
ATOM     29  C   UNL     1      34.333  31.749  20.330  1.00  0.00    -0.000 C 
BRANCH  29  30
ATOM     30  C   UNL     1      33.400  30.720  19.651  1.00  0.00    -0.000 C 
BRANCH  30  31
ATOM     31  C   UNL     1      33.354  29.336  20.328  1.00  0.00    -0.003 C 
ATOM     32  C   UNL     1      32.207  29.200  21.328  1.00  0.00     0.004 C 
ENDBRANCH  30  31
ENDBRANCH  29  30
ENDBRANCH  28  29
ENDBRANCH  27  28
ENDBRANCH  26  27
ENDBRANCH  25  26
ENDBRANCH  24  25
ENDBRANCH  23  24
ENDBRANCH  22  23
ENDBRANCH  21  22
ENDBRANCH  20  21
ENDBRANCH  19  20
ENDBRANCH  18  19
ENDBRANCH   1  18
TORSDOF 28
ENDMDL
MODEL 2
REMARK VINA RESULT:    -4.280      4.384      7.087
REMARK INTER + INTRA:         -16.382
REMARK INTER:                 -10.155
REMARK INTRA:                  -6.228
REMARK UNBOUND:                -5.095
REMARK SMILES CCCCCCCCCCCCCCCCCCCCCCCCCCCCCC(=O)[O-]
REMARK SMILES IDX 16 1 17 2 18 3 19 4 20 5 21 6 22 7 23 8 24 9 25 10 26 11
REMARK SMILES IDX 27 12 28 13 29 14 30 15 31 16 32 17 15 18 14 19 13 20 12 21
REMARK SMILES IDX 11 22 10 23 9 24 8 25 7 26 6 27 5 28 4 29 3 30 2 31 1 32
REMARK H PARENT
REMARK Flexibility Score: inf
ROOT
ATOM      1  C   UNL     1      34.448  31.606  24.128  1.00  0.00     0.000 C 
ENDROOT
BRANCH   1   2
ATOM      2  C   UNL     1      34.405  32.016  25.614  1.00  0.00     0.000 C 
BRANCH   2   3
ATOM      3  C   UNL     1      34.075  33.503  25.845  1.00  0.00     0.000 C 
BRANCH   3   4
ATOM      4  C   UNL     1      35.231  34.352  26.399  1.00  0.00     0.000 C 
BRANCH   4   5
ATOM      5  C   UNL     1      36.488  33.519  26.702  1.00  0.00     0.000 C 
BRANCH   5   6
ATOM      6  C   UNL     1      37.693  33.908  25.823  1.00  0.00     0.000 C 
BRANCH   6   7
ATOM      7  C   UNL     1      37.710  33.268  24.420  1.00  0.00     0.000 C 
BRANCH   7   8
ATOM      8  C   UNL     1      37.914  34.247  23.248  1.00  0.00     0.000 C 
BRANCH   8   9
ATOM      9  C   UNL     1      37.219  35.612  23.437  1.00  0.00     0.000 C 
BRANCH   9  10
ATOM     10  C   UNL     1      35.719  35.564  23.100  1.00  0.00     0.000 C 
BRANCH  10  11
ATOM     11  C   UNL     1      35.424  35.904  21.631  1.00  0.00     0.000 C 
BRANCH  11  12
ATOM     12  C   UNL     1      34.001  36.454  21.397  1.00  0.00     0.000 C 
BRANCH  12  13
ATOM     13  C   UNL     1      33.150  35.515  20.521  1.00  0.00     0.006 C 
BRANCH  13  14
ATOM     14  C   UNL     1      32.836  36.126  19.147  1.00  0.00     0.053 C 
BRANCH  14  15
ATOM     15  C   UNL     1      32.101  37.424  19.271  1.00  0.00     0.041 C 
ATOM     16  O   UNL     1      31.005  37.474  19.889  1.00  0.00    -0.550 OA
ATOM     17  O   UNL     1      32.643  38.584  18.736  1.00  0.00    -0.550 OA
ENDBRANCH  14  15
ENDBRANCH  13  14
ENDBRANCH  12  13
ENDBRANCH  11  12
ENDBRANCH  10  11
ENDBRANCH   9  10
ENDBRANCH   8   9
ENDBRANCH   7   8
ENDBRANCH   6   7
ENDBRANCH   5   6
ENDBRANCH   4   5
ENDBRANCH   3   4
ENDBRANCH   2   3
ENDBRANCH   1   2
BRANCH   1  18
ATOM     18  C   UNL     1      33.746  32.622  23.213  1.00  0.00     0.000 C 
BRANCH  18  19
ATOM     19  C   UNL     1      32.875  31.910  22.169  1.00  0.00     0.000 C 
BRANCH  19  20
ATOM     20  C   UNL     1      33.249  30.424  22.061  1.00  0.00     0.000 C 
BRANCH  20  21
ATOM     21  C   UNL     1      32.451  29.685  20.971  1.00  0.00     0.000 C 
BRANCH  21  22
ATOM     22  C   UNL     1      33.251  28.626  20.189  1.00  0.00     0.000 C 
BRANCH  22  23
ATOM     23  C   UNL     1      33.563  29.055  18.747  1.00  0.00     0.000 C 
BRANCH  23  24
ATOM     24  C   UNL     1      32.776  30.317  18.370  1.00  0.00    -0.000 C 
BRANCH  24  25
ATOM     25  C   UNL     1      33.625  31.270  17.513  1.00  0.00    -0.000 C 
BRANCH  25  26
ATOM     26  C   UNL     1      33.780  32.669  18.141  1.00  0.00    -0.000 C 
BRANCH  26  27
ATOM     27  C   UNL     1      35.228  33.056  18.496  1.00  0.00    -0.000 C 
BRANCH  27  28
ATOM     28  C   UNL     1      35.588  32.735  19.958  1.00  0.00    -0.000 C 
BRANCH  28  29
ATOM     29  C   UNL     1      36.198  31.334  20.122  1.00  0.00    -0.000 C 
BRANCH  29  30
ATOM     30  C   UNL     1      37.077  31.160  21.383  1.00  0.00    -0.000 C 
BRANCH  30  31
ATOM     31  C   UNL     1      36.994  29.772  22.047  1.00  0.00    -0.003 C 
ATOM     32  C   UNL     1      37.750  29.701  23.374  1.00  0.00     0.004 C 
ENDBRANCH  30  31
ENDBRANCH  29  30
ENDBRANCH  28  29
ENDBRANCH  27  28
ENDBRANCH  26  27
ENDBRANCH  25  26
ENDBRANCH  24  25
ENDBRANCH  23  24
ENDBRANCH  22  23
ENDBRANCH  21  22
ENDBRANCH  20  21
ENDBRANCH  19  20
ENDBRANCH  18  19
ENDBRANCH   1  18
TORSDOF 28
ENDMDL
MODEL 3
REMARK VINA RESULT:    -4.246      4.100      8.602
REMARK INTER + INTRA:         -16.291
REMARK INTER:                  -9.979
REMARK INTRA:                  -6.312
REMARK UNBOUND:                -5.095
REMARK SMILES CCCCCCCCCCCCCCCCCCCCCCCCCCCCCC(=O)[O-]
REMARK SMILES IDX 16 1 17 2 18 3 19 4 20 5 21 6 22 7 23 8 24 9 25 10 26 11
REMARK SMILES IDX 27 12 28 13 29 14 30 15 31 16 32 17 15 18 14 19 13 20 12 21
REMARK SMILES IDX 11 22 10 23 9 24 8 25 7 26 6 27 5 28 4 29 3 30 2 31 1 32
REMARK H PARENT
REMARK Flexibility Score: inf
ROOT
ATOM      1  C   UNL     1      32.613  29.521  20.101  1.00  0.00     0.000 C 
ENDROOT
BRANCH   1   2
ATOM      2  C   UNL     1      33.295  28.767  18.941  1.00  0.00     0.000 C 
BRANCH   2   3
ATOM      3  C   UNL     1      33.652  29.661  17.738  1.00  0.00     0.000 C 
BRANCH   3   4
ATOM      4  C   UNL     1      33.136  31.107  17.819  1.00  0.00     0.000 C 
BRANCH   4   5
ATOM      5  C   UNL     1      33.878  32.057  16.864  1.00  0.00     0.000 C 
BRANCH   5   6
ATOM      6  C   UNL     1      33.950  33.504  17.391  1.00  0.00     0.000 C 
BRANCH   6   7
ATOM      7  C   UNL     1      33.578  33.674  18.879  1.00  0.00     0.000 C 
BRANCH   7   8
ATOM      8  C   UNL     1      34.765  33.678  19.861  1.00  0.00     0.000 C 
BRANCH   8   9
ATOM      9  C   UNL     1      36.146  33.544  19.183  1.00  0.00     0.000 C 
BRANCH   9  10
ATOM     10  C   UNL     1      36.829  32.201  19.492  1.00  0.00     0.000 C 
BRANCH  10  11
ATOM     11  C   UNL     1      35.913  31.222  20.243  1.00  0.00     0.000 C 
BRANCH  11  12
ATOM     12  C   UNL     1      36.603  29.891  20.613  1.00  0.00     0.000 C 
BRANCH  12  13
ATOM     13  C   UNL     1      37.270  29.948  22.001  1.00  0.00     0.006 C 
BRANCH  13  14
ATOM     14  C   UNL     1      38.784  29.701  21.930  1.00  0.00     0.053 C 
BRANCH  14  15
ATOM     15  C   UNL     1      39.425  29.794  23.279  1.00  0.00     0.041 C 
ATOM     16  O   UNL     1      39.039  30.662  24.106  1.00  0.00    -0.550 OA
ATOM     17  O   UNL     1      40.424  28.899  23.637  1.00  0.00    -0.550 OA
ENDBRANCH  14  15
ENDBRANCH  13  14
ENDBRANCH  12  13
ENDBRANCH  11  12
ENDBRANCH  10  11
ENDBRANCH   9  10
ENDBRANCH   8   9
ENDBRANCH   7   8
ENDBRANCH   6   7
ENDBRANCH   5   6
ENDBRANCH   4   5
ENDBRANCH   3   4
ENDBRANCH   2   3
ENDBRANCH   1   2
BRANCH   1  18
ATOM     18  C   UNL     1      32.878  28.869  21.468  1.00  0.00     0.000 C 
BRANCH  18  19
ATOM     19  C   UNL     1      33.341  29.913  22.493  1.00  0.00     0.000 C 
BRANCH  19  20
ATOM     20  C   UNL     1      32.855  31.318  22.107  1.00  0.00     0.000 C 
BRANCH  20  21
ATOM     21  C   UNL     1      33.360  32.410  23.067  1.00  0.00     0.000 C 
BRANCH  21  22
ATOM     22  C   UNL     1      34.307  31.911  24.176  1.00  0.00     0.000 C 
BRANCH  22  23
ATOM     23  C   UNL     1      34.100  32.641  25.512  1.00  0.00     0.000 C 
BRANCH  23  24
ATOM     24  C   UNL     1      35.384  32.619  26.351  1.00  0.00    -0.000 C 
BRANCH  24  25
ATOM     25  C   UNL     1      36.048  34.005  26.392  1.00  0.00    -0.000 C 
BRANCH  25  26
ATOM     26  C   UNL     1      35.029  35.160  26.460  1.00  0.00    -0.000 C 
BRANCH  26  27
ATOM     27  C   UNL     1      35.377  36.374  25.579  1.00  0.00    -0.000 C 
BRANCH  27  28
ATOM     28  C   UNL     1      34.499  36.465  24.318  1.00  0.00    -0.000 C 
BRANCH  28  29
ATOM     29  C   UNL     1      34.956  35.503  23.209  1.00  0.00    -0.000 C 
BRANCH  29  30
ATOM     30  C   UNL     1      36.489  35.324  23.106  1.00  0.00    -0.000 C 
BRANCH  30  31
ATOM     31  C   UNL     1      36.959  33.883  22.829  1.00  0.00    -0.003 C 
ATOM     32  C   UNL     1      38.438  33.801  22.453  1.00  0.00     0.004 C 
ENDBRANCH  30  31
ENDBRANCH  29  30
ENDBRANCH  28  29
ENDBRANCH  27  28
ENDBRANCH  26  27
ENDBRANCH  25  26
ENDBRANCH  24  25
ENDBRANCH  23  24
ENDBRANCH  22  23
ENDBRANCH  21  22
ENDBRANCH  20  21
ENDBRANCH  19  20
ENDBRANCH  18  19
ENDBRANCH   1  18
TORSDOF 28
ENDMDL
MODEL 4
REMARK VINA RESULT:    -4.244      2.311      5.085
REMARK INTER + INTRA:         -16.286
REMARK INTER:                 -10.053
REMARK INTRA:                  -6.233
REMARK UNBOUND:                -5.095
REMARK SMILES CCCCCCCCCCCCCCCCCCCCCCCCCCCCCC(=O)[O-]
REMARK SMILES IDX 16 1 17 2 18 3 19 4 20 5 21 6 22 7 23 8 24 9 25 10 26 11
REMARK SMILES IDX 27 12 28 13 29 14 30 15 31 16 32 17 15 18 14 19 13 20 12 21
REMARK SMILES IDX 11 22 10 23 9 24 8 25 7 26 6 27 5 28 4 29 3 30 2 31 1 32
REMARK H PARENT
REMARK Flexibility Score: inf
ROOT
ATOM      1  C   UNL     1      37.350  29.742  21.521  1.00  0.00     0.000 C 
ENDROOT
BRANCH   1   2
ATOM      2  C   UNL     1      38.151  29.469  22.810  1.00  0.00     0.000 C 
BRANCH   2   3
ATOM      3  C   UNL     1      39.508  30.198  22.871  1.00  0.00     0.000 C 
BRANCH   3   4
ATOM      4  C   UNL     1      39.832  30.869  24.216  1.00  0.00     0.000 C 
BRANCH   4   5
ATOM      5  C   UNL     1      38.858  32.008  24.561  1.00  0.00     0.000 C 
BRANCH   5   6
ATOM      6  C   UNL     1      39.092  33.276  23.717  1.00  0.00     0.000 C 
BRANCH   6   7
ATOM      7  C   UNL     1      37.811  33.943  23.175  1.00  0.00     0.000 C 
BRANCH   7   8
ATOM      8  C   UNL     1      37.391  35.244  23.886  1.00  0.00     0.000 C 
BRANCH   8   9
ATOM      9  C   UNL     1      35.864  35.471  23.935  1.00  0.00     0.000 C 
BRANCH   9  10
ATOM     10  C   UNL     1      35.077  34.162  24.113  1.00  0.00     0.000 C 
BRANCH  10  11
ATOM     11  C   UNL     1      34.688  33.890  25.575  1.00  0.00     0.000 C 
BRANCH  11  12
ATOM     12  C   UNL     1      35.734  33.058  26.348  1.00  0.00     0.000 C 
BRANCH  12  13
ATOM     13  C   UNL     1      36.554  33.920  27.327  1.00  0.00     0.006 C 
BRANCH  13  14
ATOM     14  C   UNL     1      35.896  35.281  27.597  1.00  0.00     0.053 C 
BRANCH  14  15
ATOM     15  C   UNL     1      36.382  35.890  28.874  1.00  0.00     0.041 C 
ATOM     16  O   UNL     1      37.352  35.376  29.492  1.00  0.00    -0.550 OA
ATOM     17  O   UNL     1      35.789  37.045  29.364  1.00  0.00    -0.550 OA
ENDBRANCH  14  15
ENDBRANCH  13  14
ENDBRANCH  12  13
ENDBRANCH  11  12
ENDBRANCH  10  11
ENDBRANCH   9  10
ENDBRANCH   8   9
ENDBRANCH   7   8
ENDBRANCH   6   7
ENDBRANCH   5   6
ENDBRANCH   4   5
ENDBRANCH   3   4
ENDBRANCH   2   3
ENDBRANCH   1   2
BRANCH   1  18
ATOM     18  C   UNL     1      36.286  30.835  21.706  1.00  0.00     0.000 C 
BRANCH  18  19
ATOM     19  C   UNL     1      35.784  30.874  23.155  1.00  0.00     0.000 C 
BRANCH  19  20
ATOM     20  C   UNL     1      34.324  30.404  23.244  1.00  0.00     0.000 C 
BRANCH  20  21
ATOM     21  C   UNL     1      33.350  31.333  22.497  1.00  0.00     0.000 C 
BRANCH  21  22
ATOM     22  C   UNL     1      32.478  30.638  21.433  1.00  0.00     0.000 C 
BRANCH  22  23
ATOM     23  C   UNL     1      32.654  29.112  21.420  1.00  0.00     0.000 C 
BRANCH  23  24
ATOM     24  C   UNL     1      32.848  28.596  19.989  1.00  0.00    -0.000 C 
BRANCH  24  25
ATOM     25  C   UNL     1      34.331  28.614  19.585  1.00  0.00    -0.000 C 
BRANCH  25  26
ATOM     26  C   UNL     1      34.626  29.573  18.415  1.00  0.00    -0.000 C 
BRANCH  26  27
ATOM     27  C   UNL     1      33.375  30.162  17.738  1.00  0.00    -0.000 C 
BRANCH  27  28
ATOM     28  C   UNL     1      33.341  31.701  17.787  1.00  0.00    -0.000 C 
BRANCH  28  29
ATOM     29  C   UNL     1      34.399  32.285  18.736  1.00  0.00    -0.000 C 
BRANCH  29  30
ATOM     30  C   UNL     1      33.931  33.522  19.537  1.00  0.00    -0.000 C 
BRANCH  30  31
ATOM     31  C   UNL     1      34.994  34.137  20.467  1.00  0.00    -0.003 C 
ATOM     32  C   UNL     1      36.389  34.161  19.843  1.00  0.00     0.004 C 
ENDBRANCH  30  31
ENDBRANCH  29  30
ENDBRANCH  28  29
ENDBRANCH  27  28
ENDBRANCH  26  27
ENDBRANCH  25  26
ENDBRANCH  24  25
ENDBRANCH  23  24
ENDBRANCH  22  23
ENDBRANCH  21  22
ENDBRANCH  20  21
ENDBRANCH  19  20
ENDBRANCH  18  19
ENDBRANCH   1  18
TORSDOF 28
ENDMDL
MODEL 5
REMARK VINA RESULT:    -4.213      2.511      3.740
REMARK INTER + INTRA:         -16.205
REMARK INTER:                 -10.041
REMARK INTRA:                  -6.164
REMARK UNBOUND:                -5.095
REMARK SMILES CCCCCCCCCCCCCCCCCCCCCCCCCCCCCC(=O)[O-]
REMARK SMILES IDX 16 1 17 2 18 3 19 4 20 5 21 6 22 7 23 8 24 9 25 10 26 11
REMARK SMILES IDX 27 12 28 13 29 14 30 15 31 16 32 17 15 18 14 19 13 20 12 21
REMARK SMILES IDX 11 22 10 23 9 24 8 25 7 26 6 27 5 28 4 29 3 30 2 31 1 32
REMARK H PARENT
REMARK Flexibility Score: inf
ROOT
ATOM      1  C   UNL     1      38.077  34.502  24.412  1.00  0.00     0.000 C 
ENDROOT
BRANCH   1   2
ATOM      2  C   UNL     1      39.063  35.110  25.430  1.00  0.00     0.000 C 
BRANCH   2   3
ATOM      3  C   UNL     1      38.802  34.683  26.887  1.00  0.00     0.000 C 
BRANCH   3   4
ATOM      4  C   UNL     1      37.655  33.678  27.080  1.00  0.00     0.000 C 
BRANCH   4   5
ATOM      5  C   UNL     1      36.662  34.113  28.172  1.00  0.00     0.000 C 
BRANCH   5   6
ATOM      6  C   UNL     1      35.720  35.243  27.714  1.00  0.00     0.000 C 
BRANCH   6   7
ATOM      7  C   UNL     1      35.530  36.385  28.733  1.00  0.00     0.000 C 
BRANCH   7   8
ATOM      8  C   UNL     1      36.804  36.821  29.484  1.00  0.00     0.000 C 
BRANCH   8   9
ATOM      9  C   UNL     1      37.222  38.283  29.221  1.00  0.00     0.000 C 
BRANCH   9  10
ATOM     10  C   UNL     1      38.673  38.403  28.722  1.00  0.00     0.000 C 
BRANCH  10  11
ATOM     11  C   UNL     1      38.781  38.420  27.189  1.00  0.00     0.000 C 
BRANCH  11  12
ATOM     12  C   UNL     1      37.495  38.903  26.484  1.00  0.00     0.000 C 
BRANCH  12  13
ATOM     13  C   UNL     1      37.111  38.002  25.295  1.00  0.00     0.006 C 
BRANCH  13  14
ATOM     14  C   UNL     1      35.591  37.822  25.167  1.00  0.00     0.053 C 
BRANCH  14  15
ATOM     15  C   UNL     1      35.087  38.285  23.836  1.00  0.00     0.041 C 
ATOM     16  O   UNL     1      33.884  38.634  23.701  1.00  0.00    -0.550 OA
ATOM     17  O   UNL     1      35.953  38.367  22.755  1.00  0.00    -0.550 OA
ENDBRANCH  14  15
ENDBRANCH  13  14
ENDBRANCH  12  13
ENDBRANCH  11  12
ENDBRANCH  10  11
ENDBRANCH   9  10
ENDBRANCH   8   9
ENDBRANCH   7   8
ENDBRANCH   6   7
ENDBRANCH   5   6
ENDBRANCH   4   5
ENDBRANCH   3   4
ENDBRANCH   2   3
ENDBRANCH   1   2
BRANCH   1  18
ATOM     18  C   UNL     1      38.690  33.343  23.611  1.00  0.00     0.000 C 
BRANCH  18  19
ATOM     19  C   UNL     1      37.602  32.383  23.113  1.00  0.00     0.000 C 
BRANCH  19  20
ATOM     20  C   UNL     1      37.130  31.453  24.241  1.00  0.00     0.000 C 
BRANCH  20  21
ATOM     21  C   UNL     1      35.599  31.290  24.280  1.00  0.00     0.000 C 
BRANCH  21  22
ATOM     22  C   UNL     1      34.876  32.200  25.291  1.00  0.00     0.000 C 
BRANCH  22  23
ATOM     23  C   UNL     1      33.805  33.087  24.637  1.00  0.00     0.000 C 
BRANCH  23  24
ATOM     24  C   UNL     1      34.372  34.473  24.304  1.00  0.00    -0.000 C 
BRANCH  24  25
ATOM     25  C   UNL     1      34.091  34.854  22.841  1.00  0.00    -0.000 C 
BRANCH  25  26
ATOM     26  C   UNL     1      35.290  34.590  21.909  1.00  0.00    -0.000 C 
BRANCH  26  27
ATOM     27  C   UNL     1      34.941  33.826  20.618  1.00  0.00    -0.000 C 
BRANCH  27  28
ATOM     28  C   UNL     1      33.669  32.970  20.758  1.00  0.00    -0.000 C 
BRANCH  28  29
ATOM     29  C   UNL     1      33.974  31.524  21.181  1.00  0.00    -0.000 C 
BRANCH  29  30
ATOM     30  C   UNL     1      32.810  30.807  21.903  1.00  0.00    -0.000 C 
BRANCH  30  31
ATOM     31  C   UNL     1      32.723  29.289  21.651  1.00  0.00    -0.003 C 
ATOM     32  C   UNL     1      32.947  28.916  20.186  1.00  0.00     0.004 C 
ENDBRANCH  30  31
ENDBRANCH  29  30
ENDBRANCH  28  29
ENDBRANCH  27  28
ENDBRANCH  26  27
ENDBRANCH  25  26
ENDBRANCH  24  25
ENDBRANCH  23  24
ENDBRANCH  22  23
ENDBRANCH  21  22
ENDBRANCH  20  21
ENDBRANCH  19  20
ENDBRANCH  18  19
ENDBRANCH   1  18
TORSDOF 28
ENDMDL
MODEL 6
REMARK VINA RESULT:    -4.209      1.731      4.026
REMARK INTER + INTRA:         -16.193
REMARK INTER:                 -10.982
REMARK INTRA:                  -5.211
REMARK UNBOUND:                -5.095
REMARK SMILES CCCCCCCCCCCCCCCCCCCCCCCCCCCCCC(=O)[O-]
REMARK SMILES IDX 16 1 17 2 18 3 19 4 20 5 21 6 22 7 23 8 24 9 25 10 26 11
REMARK SMILES IDX 27 12 28 13 29 14 30 15 31 16 32 17 15 18 14 19 13 20 12 21
REMARK SMILES IDX 11 22 10 23 9 24 8 25 7 26 6 27 5 28 4 29 3 30 2 31 1 32
REMARK H PARENT
REMARK Flexibility Score: inf
ROOT
ATOM      1  C   UNL     1      37.201  31.337  22.723  1.00  0.00     0.000 C 
ENDROOT
BRANCH   1   2
ATOM      2  C   UNL     1      37.271  31.054  24.238  1.00  0.00     0.000 C 
BRANCH   2   3
ATOM      3  C   UNL     1      36.465  32.046  25.098  1.00  0.00     0.000 C 
BRANCH   3   4
ATOM      4  C   UNL     1      34.944  31.817  25.110  1.00  0.00     0.000 C 
BRANCH   4   5
ATOM      5  C   UNL     1      34.155  33.088  25.468  1.00  0.00     0.000 C 
BRANCH   5   6
ATOM      6  C   UNL     1      34.119  34.116  24.321  1.00  0.00     0.000 C 
BRANCH   6   7
ATOM      7  C   UNL     1      34.709  35.499  24.667  1.00  0.00     0.000 C 
BRANCH   7   8
ATOM      8  C   UNL     1      36.241  35.613  24.552  1.00  0.00     0.000 C 
BRANCH   8   9
ATOM      9  C   UNL     1      36.961  35.831  25.900  1.00  0.00     0.000 C 
BRANCH   9  10
ATOM     10  C   UNL     1      36.015  35.690  27.105  1.00  0.00     0.000 C 
BRANCH  10  11
ATOM     11  C   UNL     1      36.640  34.904  28.269  1.00  0.00     0.000 C 
BRANCH  11  12
ATOM     12  C   UNL     1      36.994  35.782  29.488  1.00  0.00     0.000 C 
BRANCH  12  13
ATOM     13  C   UNL     1      36.389  37.195  29.382  1.00  0.00     0.006 C 
BRANCH  13  14
ATOM     14  C   UNL     1      37.369  38.203  28.764  1.00  0.00     0.053 C 
BRANCH  14  15
ATOM     15  C   UNL     1      38.594  38.376  29.606  1.00  0.00     0.041 C 
ATOM     16  O   UNL     1      39.713  37.980  29.185  1.00  0.00    -0.550 OA
ATOM     17  O   UNL     1      38.507  39.008  30.838  1.00  0.00    -0.550 OA
ENDBRANCH  14  15
ENDBRANCH  13  14
ENDBRANCH  12  13
ENDBRANCH  11  12
ENDBRANCH  10  11
ENDBRANCH   9  10
ENDBRANCH   8   9
ENDBRANCH   7   8
ENDBRANCH   6   7
ENDBRANCH   5   6
ENDBRANCH   4   5
ENDBRANCH   3   4
ENDBRANCH   2   3
ENDBRANCH   1   2
BRANCH   1  18
ATOM     18  C   UNL     1      37.341  32.831  22.393  1.00  0.00     0.000 C 
BRANCH  18  19
ATOM     19  C   UNL     1      36.206  33.298  21.471  1.00  0.00     0.000 C 
BRANCH  19  20
ATOM     20  C   UNL     1      35.334  32.113  21.029  1.00  0.00     0.000 C 
BRANCH  20  21
ATOM     21  C   UNL     1      33.828  32.434  21.064  1.00  0.00     0.000 C 
BRANCH  21  22
ATOM     22  C   UNL     1      32.981  31.474  21.921  1.00  0.00     0.000 C 
BRANCH  22  23
ATOM     23  C   UNL     1      33.723  30.177  22.277  1.00  0.00     0.000 C 
BRANCH  23  24
ATOM     24  C   UNL     1      32.891  28.948  21.892  1.00  0.00    -0.000 C 
BRANCH  24  25
ATOM     25  C   UNL     1      32.509  28.977  20.403  1.00  0.00    -0.000 C 
BRANCH  25  26
ATOM     26  C   UNL     1      33.674  28.583  19.474  1.00  0.00    -0.000 C 
BRANCH  26  27
ATOM     27  C   UNL     1      33.830  29.476  18.229  1.00  0.00    -0.000 C 
BRANCH  27  28
ATOM     28  C   UNL     1      32.741  30.560  18.134  1.00  0.00    -0.000 C 
BRANCH  28  29
ATOM     29  C   UNL     1      33.249  31.850  17.471  1.00  0.00    -0.000 C 
BRANCH  29  30
ATOM     30  C   UNL     1      34.787  31.939  17.333  1.00  0.00    -0.000 C 
BRANCH  30  31
ATOM     31  C   UNL     1      35.327  33.329  16.944  1.00  0.00    -0.003 C 
ATOM     32  C   UNL     1      36.513  33.769  17.802  1.00  0.00     0.004 C 
ENDBRANCH  30  31
ENDBRANCH  29  30
ENDBRANCH  28  29
ENDBRANCH  27  28
ENDBRANCH  26  27
ENDBRANCH  25  26
ENDBRANCH  24  25
ENDBRANCH  23  24
ENDBRANCH  22  23
ENDBRANCH  21  22
ENDBRANCH  20  21
ENDBRANCH  19  20
ENDBRANCH  18  19
ENDBRANCH   1  18
TORSDOF 28
ENDMDL
MODEL 7
REMARK VINA RESULT:    -4.205      3.603      8.661
REMARK INTER + INTRA:         -16.184
REMARK INTER:                 -10.243
REMARK INTRA:                  -5.941
REMARK UNBOUND:                -5.095
REMARK SMILES CCCCCCCCCCCCCCCCCCCCCCCCCCCCCC(=O)[O-]
REMARK SMILES IDX 16 1 17 2 18 3 19 4 20 5 21 6 22 7 23 8 24 9 25 10 26 11
REMARK SMILES IDX 27 12 28 13 29 14 30 15 31 16 32 17 15 18 14 19 13 20 12 21
REMARK SMILES IDX 11 22 10 23 9 24 8 25 7 26 6 27 5 28 4 29 3 30 2 31 1 32
REMARK H PARENT
REMARK Flexibility Score: inf
ROOT
ATOM      1  C   UNL     1      33.626  33.397  20.746  1.00  0.00     0.000 C 
ENDROOT
BRANCH   1   2
ATOM      2  C   UNL     1      34.007  32.244  21.697  1.00  0.00     0.000 C 
BRANCH   2   3
ATOM      3  C   UNL     1      32.828  31.326  22.071  1.00  0.00     0.000 C 
BRANCH   3   4
ATOM      4  C   UNL     1      33.109  29.818  21.955  1.00  0.00     0.000 C 
BRANCH   4   5
ATOM      5  C   UNL     1      32.316  29.152  20.817  1.00  0.00     0.000 C 
BRANCH   5   6
ATOM      6  C   UNL     1      33.219  28.621  19.686  1.00  0.00     0.000 C 
BRANCH   6   7
ATOM      7  C   UNL     1      33.157  29.425  18.372  1.00  0.00     0.000 C 
BRANCH   7   8
ATOM      8  C   UNL     1      34.116  30.628  18.286  1.00  0.00     0.000 C 
BRANCH   8   9
ATOM      9  C   UNL     1      35.577  30.298  18.660  1.00  0.00     0.000 C 
BRANCH   9  10
ATOM     10  C   UNL     1      36.402  31.555  18.985  1.00  0.00     0.000 C 
BRANCH  10  11
ATOM     11  C   UNL     1      37.578  31.271  19.933  1.00  0.00     0.000 C 
BRANCH  11  12
ATOM     12  C   UNL     1      37.190  31.308  21.427  1.00  0.00     0.000 C 
BRANCH  12  13
ATOM     13  C   UNL     1      37.027  29.895  22.020  1.00  0.00     0.006 C 
BRANCH  13  14
ATOM     14  C   UNL     1      37.715  29.754  23.386  1.00  0.00     0.053 C 
BRANCH  14  15
ATOM     15  C   UNL     1      39.184  30.026  23.299  1.00  0.00     0.041 C 
ATOM     16  O   UNL     1      39.718  30.873  24.063  1.00  0.00    -0.550 OA
ATOM     17  O   UNL     1      39.970  29.318  22.401  1.00  0.00    -0.550 OA
ENDBRANCH  14  15
ENDBRANCH  13  14
ENDBRANCH  12  13
ENDBRANCH  11  12
ENDBRANCH  10  11
ENDBRANCH   9  10
ENDBRANCH   8   9
ENDBRANCH   7   8
ENDBRANCH   6   7
ENDBRANCH   5   6
ENDBRANCH   4   5
ENDBRANCH   3   4
ENDBRANCH   2   3
ENDBRANCH   1   2
BRANCH   1  18
ATOM     18  C   UNL     1      34.735  34.454  20.622  1.00  0.00     0.000 C 
BRANCH  18  19
ATOM     19  C   UNL     1      35.203  34.922  22.007  1.00  0.00     0.000 C 
BRANCH  19  20
ATOM     20  C   UNL     1      34.121  35.767  22.697  1.00  0.00     0.000 C 
BRANCH  20  21
ATOM     21  C   UNL     1      34.428  36.032  24.182  1.00  0.00     0.000 C 
BRANCH  21  22
ATOM     22  C   UNL     1      35.778  36.724  24.452  1.00  0.00     0.000 C 
BRANCH  22  23
ATOM     23  C   UNL     1      36.089  36.863  25.950  1.00  0.00     0.000 C 
BRANCH  23  24
ATOM     24  C   UNL     1      35.232  35.900  26.779  1.00  0.00    -0.000 C 
BRANCH  24  25
ATOM     25  C   UNL     1      35.927  35.529  28.100  1.00  0.00    -0.000 C 
BRANCH  25  26
ATOM     26  C   UNL     1      36.770  34.243  27.997  1.00  0.00    -0.000 C 
BRANCH  26  27
ATOM     27  C   UNL     1      38.146  34.431  27.331  1.00  0.00    -0.000 C 
BRANCH  27  28
ATOM     28  C   UNL     1      38.278  33.654  26.008  1.00  0.00    -0.000 C 
BRANCH  28  29
ATOM     29  C   UNL     1      37.260  32.508  25.892  1.00  0.00    -0.000 C 
BRANCH  29  30
ATOM     30  C   UNL     1      36.122  32.760  24.877  1.00  0.00    -0.000 C 
BRANCH  30  31
ATOM     31  C   UNL     1      34.847  31.926  25.107  1.00  0.00    -0.003 C 
ATOM     32  C   UNL     1      33.672  32.761  25.614  1.00  0.00     0.004 C 
ENDBRANCH  30  31
ENDBRANCH  29  30
ENDBRANCH  28  29
ENDBRANCH  27  28
ENDBRANCH  26  27
ENDBRANCH  25  26
ENDBRANCH  24  25
ENDBRANCH  23  24
ENDBRANCH  22  23
ENDBRANCH  21  22
ENDBRANCH  20  21
ENDBRANCH  19  20
ENDBRANCH  18  19
ENDBRANCH   1  18
TORSDOF 28
ENDMDL
MODEL 8
REMARK VINA RESULT:    -4.190      3.520      6.180
REMARK INTER + INTRA:         -16.144
REMARK INTER:                 -10.526
REMARK INTRA:                  -5.618
REMARK UNBOUND:                -5.095
REMARK SMILES CCCCCCCCCCCCCCCCCCCCCCCCCCCCCC(=O)[O-]
REMARK SMILES IDX 16 1 17 2 18 3 19 4 20 5 21 6 22 7 23 8 24 9 25 10 26 11
REMARK SMILES IDX 27 12 28 13 29 14 30 15 31 16 32 17 15 18 14 19 13 20 12 21
REMARK SMILES IDX 11 22 10 23 9 24 8 25 7 26 6 27 5 28 4 29 3 30 2 31 1 32
REMARK H PARENT
REMARK Flexibility Score: inf
ROOT
ATOM      1  C   UNL     1      33.623  34.100  19.711  1.00  0.00     0.000 C 
ENDROOT
BRANCH   1   2
ATOM      2  C   UNL     1      34.507  33.745  20.924  1.00  0.00     0.000 C 
BRANCH   2   3
ATOM      3  C   UNL     1      33.930  34.207  22.276  1.00  0.00     0.000 C 
BRANCH   3   4
ATOM      4  C   UNL     1      34.719  33.751  23.515  1.00  0.00     0.000 C 
BRANCH   4   5
ATOM      5  C   UNL     1      33.825  33.090  24.578  1.00  0.00     0.000 C 
BRANCH   5   6
ATOM      6  C   UNL     1      34.630  32.413  25.704  1.00  0.00     0.000 C 
BRANCH   6   7
ATOM      7  C   UNL     1      36.083  32.908  25.854  1.00  0.00     0.000 C 
BRANCH   7   8
ATOM      8  C   UNL     1      36.527  33.232  27.293  1.00  0.00     0.000 C 
BRANCH   8   9
ATOM      9  C   UNL     1      36.652  34.742  27.591  1.00  0.00     0.000 C 
BRANCH   9  10
ATOM     10  C   UNL     1      35.440  35.546  27.090  1.00  0.00     0.000 C 
BRANCH  10  11
ATOM     11  C   UNL     1      35.838  36.838  26.360  1.00  0.00     0.000 C 
BRANCH  11  12
ATOM     12  C   UNL     1      35.690  36.753  24.826  1.00  0.00     0.000 C 
BRANCH  12  13
ATOM     13  C   UNL     1      34.373  37.382  24.333  1.00  0.00     0.006 C 
BRANCH  13  14
ATOM     14  C   UNL     1      34.605  38.687  23.557  1.00  0.00     0.053 C 
BRANCH  14  15
ATOM     15  C   UNL     1      34.039  38.619  22.173  1.00  0.00     0.041 C 
ATOM     16  O   UNL     1      34.305  37.639  21.428  1.00  0.00    -0.550 OA
ATOM     17  O   UNL     1      33.188  39.617  21.720  1.00  0.00    -0.550 OA
ENDBRANCH  14  15
ENDBRANCH  13  14
ENDBRANCH  12  13
ENDBRANCH  11  12
ENDBRANCH  10  11
ENDBRANCH   9  10
ENDBRANCH   8   9
ENDBRANCH   7   8
ENDBRANCH   6   7
ENDBRANCH   5   6
ENDBRANCH   4   5
ENDBRANCH   3   4
ENDBRANCH   2   3
ENDBRANCH   1   2
BRANCH   1  18
ATOM     18  C   UNL     1      33.764  33.092  18.560  1.00  0.00     0.000 C 
BRANCH  18  19
ATOM     19  C   UNL     1      35.032  32.243  18.726  1.00  0.00     0.000 C 
BRANCH  19  20
ATOM     20  C   UNL     1      34.867  30.871  18.055  1.00  0.00     0.000 C 
BRANCH  20  21
ATOM     21  C   UNL     1      33.462  30.274  18.254  1.00  0.00     0.000 C 
BRANCH  21  22
ATOM     22  C   UNL     1      33.442  28.843  18.826  1.00  0.00     0.000 C 
BRANCH  22  23
ATOM     23  C   UNL     1      32.855  28.775  20.244  1.00  0.00     0.000 C 
BRANCH  23  24
ATOM     24  C   UNL     1      32.200  30.107  20.630  1.00  0.00    -0.000 C 
BRANCH  24  25
ATOM     25  C   UNL     1      32.872  30.720  21.870  1.00  0.00    -0.000 C 
BRANCH  25  26
ATOM     26  C   UNL     1      33.795  29.730  22.608  1.00  0.00    -0.000 C 
BRANCH  26  27
ATOM     27  C   UNL     1      35.255  30.198  22.748  1.00  0.00    -0.000 C 
BRANCH  27  28
ATOM     28  C   UNL     1      36.012  30.195  21.408  1.00  0.00    -0.000 C 
BRANCH  28  29
ATOM     29  C   UNL     1      37.357  30.936  21.488  1.00  0.00    -0.000 C 
BRANCH  29  30
ATOM     30  C   UNL     1      37.655  31.578  22.863  1.00  0.00    -0.000 C 
BRANCH  30  31
ATOM     31  C   UNL     1      38.732  30.859  23.698  1.00  0.00    -0.003 C 
ATOM     32  C   UNL     1      39.388  31.771  24.735  1.00  0.00     0.004 C 
ENDBRANCH  30  31
ENDBRANCH  29  30
ENDBRANCH  28  29
ENDBRANCH  27  28
ENDBRANCH  26  27
ENDBRANCH  25  26
ENDBRANCH  24  25
ENDBRANCH  23  24
ENDBRANCH  22  23
ENDBRANCH  21  22
ENDBRANCH  20  21
ENDBRANCH  19  20
ENDBRANCH  18  19
ENDBRANCH   1  18
TORSDOF 28
ENDMDL
MODEL 9
REMARK VINA RESULT:    -4.167      3.068      4.480
REMARK INTER + INTRA:         -16.084
REMARK INTER:                  -9.442
REMARK INTRA:                  -6.642
REMARK UNBOUND:                -5.095
REMARK SMILES CCCCCCCCCCCCCCCCCCCCCCCCCCCCCC(=O)[O-]
REMARK SMILES IDX 16 1 17 2 18 3 19 4 20 5 21 6 22 7 23 8 24 9 25 10 26 11
REMARK SMILES IDX 27 12 28 13 29 14 30 15 31 16 32 17 15 18 14 19 13 20 12 21
REMARK SMILES IDX 11 22 10 23 9 24 8 25 7 26 6 27 5 28 4 29 3 30 2 31 1 32
REMARK H PARENT
REMARK Flexibility Score: inf
ROOT
ATOM      1  C   UNL     1      39.270  35.259  25.123  1.00  0.00     0.000 C 
ENDROOT
BRANCH   1   2
ATOM      2  C   UNL     1      39.595  35.155  26.627  1.00  0.00     0.000 C 
BRANCH   2   3
ATOM      3  C   UNL     1      39.455  36.485  27.391  1.00  0.00     0.000 C 
BRANCH   3   4
ATOM      4  C   UNL     1      38.752  37.614  26.620  1.00  0.00     0.000 C 
BRANCH   4   5
ATOM      5  C   UNL     1      37.744  38.387  27.487  1.00  0.00     0.000 C 
BRANCH   5   6
ATOM      6  C   UNL     1      37.709  37.899  28.948  1.00  0.00     0.000 C 
BRANCH   6   7
ATOM      7  C   UNL     1      36.393  37.216  29.375  1.00  0.00     0.000 C 
BRANCH   7   8
ATOM      8  C   UNL     1      36.441  35.678  29.451  1.00  0.00     0.000 C 
BRANCH   8   9
ATOM      9  C   UNL     1      36.213  34.971  28.097  1.00  0.00     0.000 C 
BRANCH   9  10
ATOM     10  C   UNL     1      35.135  35.661  27.244  1.00  0.00     0.000 C 
BRANCH  10  11
ATOM     11  C   UNL     1      35.562  35.853  25.780  1.00  0.00     0.000 C 
BRANCH  11  12
ATOM     12  C   UNL     1      35.136  37.213  25.185  1.00  0.00     0.000 C 
BRANCH  12  13
ATOM     13  C   UNL     1      35.817  37.494  23.832  1.00  0.00     0.006 C 
BRANCH  13  14
ATOM     14  C   UNL     1      35.376  38.834  23.225  1.00  0.00     0.053 C 
BRANCH  14  15
ATOM     15  C   UNL     1      34.260  38.658  22.243  1.00  0.00     0.041 C 
ATOM     16  O   UNL     1      34.016  37.522  21.759  1.00  0.00    -0.550 OA
ATOM     17  O   UNL     1      33.468  39.741  21.890  1.00  0.00    -0.550 OA
ENDBRANCH  14  15
ENDBRANCH  13  14
ENDBRANCH  12  13
ENDBRANCH  11  12
ENDBRANCH  10  11
ENDBRANCH   9  10
ENDBRANCH   8   9
ENDBRANCH   7   8
ENDBRANCH   6   7
ENDBRANCH   5   6
ENDBRANCH   4   5
ENDBRANCH   3   4
ENDBRANCH   2   3
ENDBRANCH   1   2
BRANCH   1  18
ATOM     18  C   UNL     1      38.301  34.165  24.649  1.00  0.00     0.000 C 
BRANCH  18  19
ATOM     19  C   UNL     1      38.663  32.806  25.265  1.00  0.00     0.000 C 
BRANCH  19  20
ATOM     20  C   UNL     1      37.443  32.168  25.947  1.00  0.00     0.000 C 
BRANCH  20  21
ATOM     21  C   UNL     1      36.143  32.357  25.143  1.00  0.00     0.000 C 
BRANCH  21  22
ATOM     22  C   UNL     1      34.847  32.176  25.956  1.00  0.00     0.000 C 
BRANCH  22  23
ATOM     23  C   UNL     1      33.633  32.861  25.309  1.00  0.00     0.000 C 
BRANCH  23  24
ATOM     24  C   UNL     1      33.661  32.694  23.784  1.00  0.00    -0.000 C 
BRANCH  24  25
ATOM     25  C   UNL     1      33.709  34.057  23.075  1.00  0.00    -0.000 C 
BRANCH  25  26
ATOM     26  C   UNL     1      34.405  33.997  21.700  1.00  0.00    -0.000 C 
BRANCH  26  27
ATOM     27  C   UNL     1      35.919  34.274  21.736  1.00  0.00    -0.000 C 
BRANCH  27  28
ATOM     28  C   UNL     1      36.761  32.989  21.634  1.00  0.00    -0.000 C 
BRANCH  28  29
ATOM     29  C   UNL     1      35.961  31.801  21.076  1.00  0.00    -0.000 C 
BRANCH  29  30
ATOM     30  C   UNL     1      36.011  30.526  21.950  1.00  0.00    -0.000 C 
BRANCH  30  31
ATOM     31  C   UNL     1      37.346  29.757  21.903  1.00  0.00    -0.003 C 
ATOM     32  C   UNL     1      37.967  29.558  23.286  1.00  0.00     0.004 C 
ENDBRANCH  30  31
ENDBRANCH  29  30
ENDBRANCH  28  29
ENDBRANCH  27  28
ENDBRANCH  26  27
ENDBRANCH  25  26
ENDBRANCH  24  25
ENDBRANCH  23  24
ENDBRANCH  22  23
ENDBRANCH  21  22
ENDBRANCH  20  21
ENDBRANCH  19  20
ENDBRANCH  18  19
ENDBRANCH   1  18
TORSDOF 28
ENDMDL
