MODEL 1
REMARK VINA RESULT:    -4.356      0.000      0.000
REMARK INTER + INTRA:         -15.249
REMARK INTER:                 -10.977
REMARK INTRA:                  -4.272
REMARK UNBOUND:                -4.272
REMARK SMILES CCCCCCCCCCCCCCCCCCCCCCCCCCCC(=O)[O-]
REMARK SMILES IDX 15 1 16 2 17 3 18 4 19 5 20 6 21 7 22 8 23 9 24 10 25 11
REMARK SMILES IDX 26 12 27 13 28 14 29 15 30 16 14 17 13 18 12 19 11 20 10 21
REMARK SMILES IDX 9 22 8 23 7 24 6 25 5 26 4 27 3 28 2 29 1 30
REMARK H PARENT
REMARK Flexibility Score: inf
ROOT
ATOM      1  C   UNL     1      22.915  20.430  21.235  1.00  0.00     0.000 C 
ENDROOT
BRANCH   1   2
ATOM      2  C   UNL     1      22.704  18.929  21.507  1.00  0.00     0.000 C 
BRANCH   2   3
ATOM      3  C   UNL     1      23.995  18.110  21.371  1.00  0.00     0.000 C 
BRANCH   3   4
ATOM      4  C   UNL     1      24.790  18.472  20.104  1.00  0.00     0.000 C 
BRANCH   4   5
ATOM      5  C   UNL     1      25.019  17.260  19.185  1.00  0.00     0.000 C 
BRANCH   5   6
ATOM      6  C   UNL     1      23.986  16.146  19.414  1.00  0.00     0.000 C 
BRANCH   6   7
ATOM      7  C   UNL     1      23.275  15.771  18.108  1.00  0.00     0.000 C 
BRANCH   7   8
ATOM      8  C   UNL     1      21.754  15.685  18.316  1.00  0.00     0.000 C 
BRANCH   8   9
ATOM      9  C   UNL     1      21.334  15.906  19.779  1.00  0.00     0.000 C 
BRANCH   9  10
ATOM     10  C   UNL     1      20.099  16.804  19.968  1.00  0.00     0.000 C 
BRANCH  10  11
ATOM     11  C   UNL     1      19.229  16.380  21.166  1.00  0.00     0.000 C 
BRANCH  11  12
ATOM     12  C   UNL     1      19.716  16.983  22.496  1.00  0.00     0.006 C 
BRANCH  12  13
ATOM     13  C   UNL     1      18.587  17.466  23.420  1.00  0.00     0.053 C 
BRANCH  13  14
ATOM     14  C   UNL     1      18.711  16.903  24.803  1.00  0.00     0.041 C 
ATOM     15  O   UNL     1      19.595  17.340  25.585  1.00  0.00    -0.550 OA
ATOM     16  O   UNL     1      17.875  15.873  25.214  1.00  0.00    -0.550 OA
ENDBRANCH  13  14
ENDBRANCH  12  13
ENDBRANCH  11  12
ENDBRANCH  10  11
ENDBRANCH   9  10
ENDBRANCH   8   9
ENDBRANCH   7   8
ENDBRANCH   6   7
ENDBRANCH   5   6
ENDBRANCH   4   5
ENDBRANCH   3   4
ENDBRANCH   2   3
ENDBRANCH   1   2
BRANCH   1  17
ATOM     17  C   UNL     1      21.590  21.213  21.151  1.00  0.00     0.000 C 
BRANCH  17  18
ATOM     18  C   UNL     1      21.740  22.702  20.783  1.00  0.00     0.000 C 
BRANCH  18  19
ATOM     19  C   UNL     1      22.090  22.920  19.301  1.00  0.00     0.000 C 
BRANCH  19  20
ATOM     20  C   UNL     1      21.290  24.080  18.675  1.00  0.00     0.000 C 
BRANCH  20  21
ATOM     21  C   UNL     1      19.969  24.395  19.401  1.00  0.00     0.000 C 
BRANCH  21  22
ATOM     22  C   UNL     1      18.740  23.815  18.684  1.00  0.00    -0.000 C 
BRANCH  22  23
ATOM     23  C   UNL     1      19.101  22.941  17.469  1.00  0.00    -0.000 C 
BRANCH  23  24
ATOM     24  C   UNL     1      18.358  21.595  17.372  1.00  0.00    -0.000 C 
BRANCH  24  25
ATOM     25  C   UNL     1      17.658  21.197  18.682  1.00  0.00    -0.000 C 
BRANCH  25  26
ATOM     26  C   UNL     1      18.369  20.038  19.401  1.00  0.00    -0.000 C 
BRANCH  26  27
ATOM     27  C   UNL     1      18.328  20.172  20.930  1.00  0.00    -0.000 C 
BRANCH  27  28
ATOM     28  C   UNL     1      17.025  20.848  21.383  1.00  0.00    -0.000 C 
BRANCH  28  29
ATOM     29  C   UNL     1      17.236  21.804  22.567  1.00  0.00    -0.003 C 
ATOM     30  C   UNL     1      18.373  22.796  22.330  1.00  0.00     0.004 C 
ENDBRANCH  28  29
ENDBRANCH  27  28
ENDBRANCH  26  27
ENDBRANCH  25  26
ENDBRANCH  24  25
ENDBRANCH  23  24
ENDBRANCH  22  23
ENDBRANCH  21  22
ENDBRANCH  20  21
ENDBRANCH  19  20
ENDBRANCH  18  19
ENDBRANCH  17  18
ENDBRANCH   1  17
TORSDOF 26
ENDMDL
MODEL 2
REMARK VINA RESULT:    -4.277      1.093      2.072
REMARK INTER + INTRA:         -15.050
REMARK INTER:                 -10.967
REMARK INTRA:                  -4.083
REMARK UNBOUND:                -4.272
REMARK SMILES CCCCCCCCCCCCCCCCCCCCCCCCCCCC(=O)[O-]
REMARK SMILES IDX 15 1 16 2 17 3 18 4 19 5 20 6 21 7 22 8 23 9 24 10 25 11
REMARK SMILES IDX 26 12 27 13 28 14 29 15 30 16 14 17 13 18 12 19 11 20 10 21
REMARK SMILES IDX 9 22 8 23 7 24 6 25 5 26 4 27 3 28 2 29 1 30
REMARK H PARENT
REMARK Flexibility Score: inf
ROOT
ATOM      1  C   UNL     1      22.876  20.544  21.591  1.00  0.00     0.000 C 
ENDROOT
BRANCH   1   2
ATOM      2  C   UNL     1      22.490  19.063  21.427  1.00  0.00     0.000 C 
BRANCH   2   3
ATOM      3  C   UNL     1      23.709  18.138  21.300  1.00  0.00     0.000 C 
BRANCH   3   4
ATOM      4  C   UNL     1      24.713  18.630  20.243  1.00  0.00     0.000 C 
BRANCH   4   5
ATOM      5  C   UNL     1      25.080  17.539  19.224  1.00  0.00     0.000 C 
BRANCH   5   6
ATOM      6  C   UNL     1      24.316  16.227  19.467  1.00  0.00     0.000 C 
BRANCH   6   7
ATOM      7  C   UNL     1      23.514  15.815  18.227  1.00  0.00     0.000 C 
BRANCH   7   8
ATOM      8  C   UNL     1      22.105  15.341  18.616  1.00  0.00     0.000 C 
BRANCH   8   9
ATOM      9  C   UNL     1      21.935  15.146  20.133  1.00  0.00     0.000 C 
BRANCH   9  10
ATOM     10  C   UNL     1      20.771  15.933  20.760  1.00  0.00     0.000 C 
BRANCH  10  11
ATOM     11  C   UNL     1      19.860  15.056  21.638  1.00  0.00     0.000 C 
BRANCH  11  12
ATOM     12  C   UNL     1      19.976  15.392  23.136  1.00  0.00     0.006 C 
BRANCH  12  13
ATOM     13  C   UNL     1      19.657  16.856  23.480  1.00  0.00     0.053 C 
BRANCH  13  14
ATOM     14  C   UNL     1      19.093  16.999  24.860  1.00  0.00     0.041 C 
ATOM     15  O   UNL     1      17.886  16.719  25.080  1.00  0.00    -0.550 OA
ATOM     16  O   UNL     1      19.890  17.471  25.895  1.00  0.00    -0.550 OA
ENDBRANCH  13  14
ENDBRANCH  12  13
ENDBRANCH  11  12
ENDBRANCH  10  11
ENDBRANCH   9  10
ENDBRANCH   8   9
ENDBRANCH   7   8
ENDBRANCH   6   7
ENDBRANCH   5   6
ENDBRANCH   4   5
ENDBRANCH   3   4
ENDBRANCH   2   3
ENDBRANCH   1   2
BRANCH   1  17
ATOM     17  C   UNL     1      21.869  21.501  20.925  1.00  0.00     0.000 C 
BRANCH  17  18
ATOM     18  C   UNL     1      22.482  22.482  19.908  1.00  0.00     0.000 C 
BRANCH  18  19
ATOM     19  C   UNL     1      21.789  22.433  18.536  1.00  0.00     0.000 C 
BRANCH  19  20
ATOM     20  C   UNL     1      21.453  23.840  18.000  1.00  0.00     0.000 C 
BRANCH  20  21
ATOM     21  C   UNL     1      20.713  24.736  19.009  1.00  0.00     0.000 C 
BRANCH  21  22
ATOM     22  C   UNL     1      19.185  24.583  18.937  1.00  0.00    -0.000 C 
BRANCH  22  23
ATOM     23  C   UNL     1      18.647  23.441  19.819  1.00  0.00    -0.000 C 
BRANCH  23  24
ATOM     24  C   UNL     1      18.965  23.554  21.321  1.00  0.00    -0.000 C 
BRANCH  24  25
ATOM     25  C   UNL     1      18.369  22.407  22.153  1.00  0.00    -0.000 C 
BRANCH  25  26
ATOM     26  C   UNL     1      17.211  21.696  21.432  1.00  0.00    -0.000 C 
BRANCH  26  27
ATOM     27  C   UNL     1      17.315  20.166  21.508  1.00  0.00    -0.000 C 
BRANCH  27  28
ATOM     28  C   UNL     1      18.707  19.691  21.065  1.00  0.00    -0.000 C 
BRANCH  28  29
ATOM     29  C   UNL     1      18.832  19.570  19.539  1.00  0.00    -0.003 C 
ATOM     30  C   UNL     1      18.428  18.190  19.020  1.00  0.00     0.004 C 
ENDBRANCH  28  29
ENDBRANCH  27  28
ENDBRANCH  26  27
ENDBRANCH  25  26
ENDBRANCH  24  25
ENDBRANCH  23  24
ENDBRANCH  22  23
ENDBRANCH  21  22
ENDBRANCH  20  21
ENDBRANCH  19  20
ENDBRANCH  18  19
ENDBRANCH  17  18
ENDBRANCH   1  17
TORSDOF 26
ENDMDL
MODEL 3
REMARK VINA RESULT:    -4.147      1.187      5.231
REMARK INTER + INTRA:         -14.721
REMARK INTER:                 -10.316
REMARK INTRA:                  -4.405
REMARK UNBOUND:                -4.272
REMARK SMILES CCCCCCCCCCCCCCCCCCCCCCCCCCCC(=O)[O-]
REMARK SMILES IDX 15 1 16 2 17 3 18 4 19 5 20 6 21 7 22 8 23 9 24 10 25 11
REMARK SMILES IDX 26 12 27 13 28 14 29 15 30 16 14 17 13 18 12 19 11 20 10 21
REMARK SMILES IDX 9 22 8 23 7 24 6 25 5 26 4 27 3 28 2 29 1 30
REMARK H PARENT
REMARK Flexibility Score: inf
ROOT
ATOM      1  C   UNL     1      19.341  23.852  21.599  1.00  0.00     0.000 C 
ENDROOT
BRANCH   1   2
ATOM      2  C   UNL     1      18.396  22.850  20.912  1.00  0.00     0.000 C 
BRANCH   2   3
ATOM      3  C   UNL     1      18.405  21.467  21.578  1.00  0.00     0.000 C 
BRANCH   3   4
ATOM      4  C   UNL     1      18.440  20.320  20.553  1.00  0.00     0.000 C 
BRANCH   4   5
ATOM      5  C   UNL     1      18.241  20.812  19.110  1.00  0.00     0.000 C 
BRANCH   5   6
ATOM      6  C   UNL     1      18.278  19.665  18.087  1.00  0.00     0.000 C 
BRANCH   6   7
ATOM      7  C   UNL     1      18.090  18.306  18.772  1.00  0.00     0.000 C 
BRANCH   7   8
ATOM      8  C   UNL     1      19.181  17.315  18.334  1.00  0.00     0.000 C 
BRANCH   8   9
ATOM      9  C   UNL     1      19.877  16.626  19.520  1.00  0.00     0.000 C 
BRANCH   9  10
ATOM     10  C   UNL     1      19.097  16.676  20.846  1.00  0.00     0.000 C 
BRANCH  10  11
ATOM     11  C   UNL     1      19.933  17.240  22.010  1.00  0.00     0.000 C 
BRANCH  11  12
ATOM     12  C   UNL     1      20.593  16.136  22.856  1.00  0.00     0.006 C 
BRANCH  12  13
ATOM     13  C   UNL     1      19.637  15.433  23.833  1.00  0.00     0.053 C 
BRANCH  13  14
ATOM     14  C   UNL     1      19.025  16.392  24.808  1.00  0.00     0.041 C 
ATOM     15  O   UNL     1      19.759  17.146  25.498  1.00  0.00    -0.550 OA
ATOM     16  O   UNL     1      17.647  16.429  24.978  1.00  0.00    -0.550 OA
ENDBRANCH  13  14
ENDBRANCH  12  13
ENDBRANCH  11  12
ENDBRANCH  10  11
ENDBRANCH   9  10
ENDBRANCH   8   9
ENDBRANCH   7   8
ENDBRANCH   6   7
ENDBRANCH   5   6
ENDBRANCH   4   5
ENDBRANCH   3   4
ENDBRANCH   2   3
ENDBRANCH   1   2
BRANCH   1  17
ATOM     17  C   UNL     1      19.885  24.921  20.631  1.00  0.00     0.000 C 
BRANCH  17  18
ATOM     18  C   UNL     1      19.641  24.627  19.138  1.00  0.00     0.000 C 
BRANCH  18  19
ATOM     19  C   UNL     1      20.898  24.830  18.275  1.00  0.00     0.000 C 
BRANCH  19  20
ATOM     20  C   UNL     1      21.419  23.505  17.681  1.00  0.00     0.000 C 
BRANCH  20  21
ATOM     21  C   UNL     1      21.446  22.336  18.681  1.00  0.00     0.000 C 
BRANCH  21  22
ATOM     22  C   UNL     1      22.530  22.495  19.759  1.00  0.00    -0.000 C 
BRANCH  22  23
ATOM     23  C   UNL     1      22.166  21.813  21.091  1.00  0.00    -0.000 C 
BRANCH  23  24
ATOM     24  C   UNL     1      22.117  20.274  21.059  1.00  0.00    -0.000 C 
BRANCH  24  25
ATOM     25  C   UNL     1      23.511  19.625  21.085  1.00  0.00    -0.000 C 
BRANCH  25  26
ATOM     26  C   UNL     1      23.474  18.172  21.588  1.00  0.00    -0.000 C 
BRANCH  26  27
ATOM     27  C   UNL     1      23.716  17.149  20.468  1.00  0.00    -0.000 C 
BRANCH  27  28
ATOM     28  C   UNL     1      24.839  17.620  19.533  1.00  0.00    -0.000 C 
BRANCH  28  29
ATOM     29  C   UNL     1      25.258  16.541  18.523  1.00  0.00    -0.003 C 
ATOM     30  C   UNL     1      24.087  15.669  18.070  1.00  0.00     0.004 C 
ENDBRANCH  28  29
ENDBRANCH  27  28
ENDBRANCH  26  27
ENDBRANCH  25  26
ENDBRANCH  24  25
ENDBRANCH  23  24
ENDBRANCH  22  23
ENDBRANCH  21  22
ENDBRANCH  20  21
ENDBRANCH  19  20
ENDBRANCH  18  19
ENDBRANCH  17  18
ENDBRANCH   1  17
TORSDOF 26
ENDMDL
MODEL 4
REMARK VINA RESULT:    -4.090      1.212      5.937
REMARK INTER + INTRA:         -14.579
REMARK INTER:                 -10.332
REMARK INTRA:                  -4.246
REMARK UNBOUND:                -4.272
REMARK SMILES CCCCCCCCCCCCCCCCCCCCCCCCCCCC(=O)[O-]
REMARK SMILES IDX 15 1 16 2 17 3 18 4 19 5 20 6 21 7 22 8 23 9 24 10 25 11
REMARK SMILES IDX 26 12 27 13 28 14 29 15 30 16 14 17 13 18 12 19 11 20 10 21
REMARK SMILES IDX 9 22 8 23 7 24 6 25 5 26 4 27 3 28 2 29 1 30
REMARK H PARENT
REMARK Flexibility Score: inf
ROOT
ATOM      1  C   UNL     1      20.860  24.921  19.298  1.00  0.00     0.000 C 
ENDROOT
BRANCH   1   2
ATOM      2  C   UNL     1      20.160  24.376  18.040  1.00  0.00     0.000 C 
BRANCH   2   3
ATOM      3  C   UNL     1      20.686  22.999  17.612  1.00  0.00     0.000 C 
BRANCH   3   4
ATOM      4  C   UNL     1      19.619  21.897  17.737  1.00  0.00     0.000 C 
BRANCH   4   5
ATOM      5  C   UNL     1      18.323  22.401  18.394  1.00  0.00     0.000 C 
BRANCH   5   6
ATOM      6  C   UNL     1      17.458  21.255  18.943  1.00  0.00     0.000 C 
BRANCH   6   7
ATOM      7  C   UNL     1      17.193  21.431  20.443  1.00  0.00     0.000 C 
BRANCH   7   8
ATOM      8  C   UNL     1      17.929  20.357  21.260  1.00  0.00     0.000 C 
BRANCH   8   9
ATOM      9  C   UNL     1      18.235  19.088  20.446  1.00  0.00     0.000 C 
BRANCH   9  10
ATOM     10  C   UNL     1      17.244  17.930  20.657  1.00  0.00     0.000 C 
BRANCH  10  11
ATOM     11  C   UNL     1      17.586  17.065  21.884  1.00  0.00     0.000 C 
BRANCH  11  12
ATOM     12  C   UNL     1      18.743  17.646  22.716  1.00  0.00     0.006 C 
BRANCH  12  13
ATOM     13  C   UNL     1      19.492  16.607  23.566  1.00  0.00     0.053 C 
BRANCH  13  14
ATOM     14  C   UNL     1      19.092  16.668  25.009  1.00  0.00     0.041 C 
ATOM     15  O   UNL     1      18.049  16.084  25.400  1.00  0.00    -0.550 OA
ATOM     16  O   UNL     1      19.853  17.398  25.913  1.00  0.00    -0.550 OA
ENDBRANCH  13  14
ENDBRANCH  12  13
ENDBRANCH  11  12
ENDBRANCH  10  11
ENDBRANCH   9  10
ENDBRANCH   8   9
ENDBRANCH   7   8
ENDBRANCH   6   7
ENDBRANCH   5   6
ENDBRANCH   4   5
ENDBRANCH   3   4
ENDBRANCH   2   3
ENDBRANCH   1   2
BRANCH   1  17
ATOM     17  C   UNL     1      19.920  25.006  20.516  1.00  0.00     0.000 C 
BRANCH  17  18
ATOM     18  C   UNL     1      19.866  23.734  21.383  1.00  0.00     0.000 C 
BRANCH  18  19
ATOM     19  C   UNL     1      21.241  23.065  21.551  1.00  0.00     0.000 C 
BRANCH  19  20
ATOM     20  C   UNL     1      21.260  21.623  21.003  1.00  0.00     0.000 C 
BRANCH  20  21
ATOM     21  C   UNL     1      22.671  21.026  20.859  1.00  0.00     0.000 C 
BRANCH  21  22
ATOM     22  C   UNL     1      22.856  19.726  21.658  1.00  0.00    -0.000 C 
BRANCH  22  23
ATOM     23  C   UNL     1      21.775  18.670  21.358  1.00  0.00    -0.000 C 
BRANCH  23  24
ATOM     24  C   UNL     1      22.272  17.214  21.277  1.00  0.00    -0.000 C 
BRANCH  24  25
ATOM     25  C   UNL     1      21.579  16.400  20.173  1.00  0.00    -0.000 C 
BRANCH  25  26
ATOM     26  C   UNL     1      22.551  15.966  19.062  1.00  0.00    -0.000 C 
BRANCH  26  27
ATOM     27  C   UNL     1      23.987  15.773  19.572  1.00  0.00    -0.000 C 
BRANCH  27  28
ATOM     28  C   UNL     1      24.975  16.611  18.746  1.00  0.00    -0.000 C 
BRANCH  28  29
ATOM     29  C   UNL     1      25.204  18.009  19.341  1.00  0.00    -0.003 C 
ATOM     30  C   UNL     1      25.872  17.965  20.715  1.00  0.00     0.004 C 
ENDBRANCH  28  29
ENDBRANCH  27  28
ENDBRANCH  26  27
ENDBRANCH  25  26
ENDBRANCH  24  25
ENDBRANCH  23  24
ENDBRANCH  22  23
ENDBRANCH  21  22
ENDBRANCH  20  21
ENDBRANCH  19  20
ENDBRANCH  18  19
ENDBRANCH  17  18
ENDBRANCH   1  17
TORSDOF 26
ENDMDL
MODEL 5
REMARK VINA RESULT:    -3.992      2.991      6.829
REMARK INTER + INTRA:         -14.332
REMARK INTER:                  -9.787
REMARK INTRA:                  -4.545
REMARK UNBOUND:                -4.272
REMARK SMILES CCCCCCCCCCCCCCCCCCCCCCCCCCCC(=O)[O-]
REMARK SMILES IDX 15 1 16 2 17 3 18 4 19 5 20 6 21 7 22 8 23 9 24 10 25 11
REMARK SMILES IDX 26 12 27 13 28 14 29 15 30 16 14 17 13 18 12 19 11 20 10 21
REMARK SMILES IDX 9 22 8 23 7 24 6 25 5 26 4 27 3 28 2 29 1 30
REMARK H PARENT
REMARK Flexibility Score: inf
ROOT
ATOM      1  C   UNL     1      24.007  18.169  21.392  1.00  0.00     0.000 C 
ENDROOT
BRANCH   1   2
ATOM      2  C   UNL     1      22.672  18.931  21.483  1.00  0.00     0.000 C 
BRANCH   2   3
ATOM      3  C   UNL     1      22.856  20.454  21.524  1.00  0.00     0.000 C 
BRANCH   3   4
ATOM      4  C   UNL     1      22.008  21.178  20.462  1.00  0.00     0.000 C 
BRANCH   4   5
ATOM      5  C   UNL     1      22.112  22.708  20.566  1.00  0.00     0.000 C 
BRANCH   5   6
ATOM      6  C   UNL     1      21.406  23.262  21.813  1.00  0.00     0.000 C 
BRANCH   6   7
ATOM      7  C   UNL     1      20.036  23.853  21.459  1.00  0.00     0.000 C 
BRANCH   7   8
ATOM      8  C   UNL     1      18.910  23.104  22.189  1.00  0.00     0.000 C 
BRANCH   8   9
ATOM      9  C   UNL     1      17.961  22.364  21.230  1.00  0.00     0.000 C 
BRANCH   9  10
ATOM     10  C   UNL     1      18.366  20.915  20.910  1.00  0.00     0.000 C 
BRANCH  10  11
ATOM     11  C   UNL     1      18.701  20.702  19.422  1.00  0.00     0.000 C 
BRANCH  11  12
ATOM     12  C   UNL     1      18.348  21.923  18.553  1.00  0.00     0.006 C 
BRANCH  12  13
ATOM     13  C   UNL     1      19.424  22.293  17.519  1.00  0.00     0.053 C 
BRANCH  13  14
ATOM     14  C   UNL     1      19.937  23.686  17.715  1.00  0.00     0.041 C 
ATOM     15  O   UNL     1      19.164  24.592  18.121  1.00  0.00    -0.550 OA
ATOM     16  O   UNL     1      21.259  23.991  17.419  1.00  0.00    -0.550 OA
ENDBRANCH  13  14
ENDBRANCH  12  13
ENDBRANCH  11  12
ENDBRANCH  10  11
ENDBRANCH   9  10
ENDBRANCH   8   9
ENDBRANCH   7   8
ENDBRANCH   6   7
ENDBRANCH   5   6
ENDBRANCH   4   5
ENDBRANCH   3   4
ENDBRANCH   2   3
ENDBRANCH   1   2
BRANCH   1  17
ATOM     17  C   UNL     1      24.765  18.448  20.079  1.00  0.00     0.000 C 
BRANCH  17  18
ATOM     18  C   UNL     1      24.876  17.244  19.126  1.00  0.00     0.000 C 
BRANCH  18  19
ATOM     19  C   UNL     1      24.015  16.048  19.568  1.00  0.00     0.000 C 
BRANCH  19  20
ATOM     20  C   UNL     1      22.683  15.968  18.794  1.00  0.00     0.000 C 
BRANCH  20  21
ATOM     21  C   UNL     1      21.434  15.967  19.692  1.00  0.00     0.000 C 
BRANCH  21  22
ATOM     22  C   UNL     1      20.127  15.806  18.899  1.00  0.00    -0.000 C 
BRANCH  22  23
ATOM     23  C   UNL     1      19.319  17.112  18.787  1.00  0.00    -0.000 C 
BRANCH  23  24
ATOM     24  C   UNL     1      17.828  17.006  19.157  1.00  0.00    -0.000 C 
BRANCH  24  25
ATOM     25  C   UNL     1      17.596  16.483  20.584  1.00  0.00    -0.000 C 
BRANCH  25  26
ATOM     26  C   UNL     1      17.195  17.600  21.564  1.00  0.00    -0.000 C 
BRANCH  26  27
ATOM     27  C   UNL     1      18.037  17.595  22.848  1.00  0.00    -0.000 C 
BRANCH  27  28
ATOM     28  C   UNL     1      19.430  17.004  22.583  1.00  0.00    -0.000 C 
BRANCH  28  29
ATOM     29  C   UNL     1      19.732  15.784  23.467  1.00  0.00    -0.003 C 
ATOM     30  C   UNL     1      21.107  15.178  23.189  1.00  0.00     0.004 C 
ENDBRANCH  28  29
ENDBRANCH  27  28
ENDBRANCH  26  27
ENDBRANCH  25  26
ENDBRANCH  24  25
ENDBRANCH  23  24
ENDBRANCH  22  23
ENDBRANCH  21  22
ENDBRANCH  20  21
ENDBRANCH  19  20
ENDBRANCH  18  19
ENDBRANCH  17  18
ENDBRANCH   1  17
TORSDOF 26
ENDMDL
MODEL 6
REMARK VINA RESULT:    -3.980      2.439      6.526
REMARK INTER + INTRA:         -14.301
REMARK INTER:                  -9.411
REMARK INTRA:                  -4.890
REMARK UNBOUND:                -4.272
REMARK SMILES CCCCCCCCCCCCCCCCCCCCCCCCCCCC(=O)[O-]
REMARK SMILES IDX 15 1 16 2 17 3 18 4 19 5 20 6 21 7 22 8 23 9 24 10 25 11
REMARK SMILES IDX 26 12 27 13 28 14 29 15 30 16 14 17 13 18 12 19 11 20 10 21
REMARK SMILES IDX 9 22 8 23 7 24 6 25 5 26 4 27 3 28 2 29 1 30
REMARK H PARENT
REMARK Flexibility Score: inf
ROOT
ATOM      1  C   UNL     1      21.372  22.212  18.940  1.00  0.00     0.000 C 
ENDROOT
BRANCH   1   2
ATOM      2  C   UNL     1      21.306  23.541  18.165  1.00  0.00     0.000 C 
BRANCH   2   3
ATOM      3  C   UNL     1      20.177  23.570  17.126  1.00  0.00     0.000 C 
BRANCH   3   4
ATOM      4  C   UNL     1      18.818  23.161  17.721  1.00  0.00     0.000 C 
BRANCH   4   5
ATOM      5  C   UNL     1      18.352  21.778  17.234  1.00  0.00     0.000 C 
BRANCH   5   6
ATOM      6  C   UNL     1      17.098  21.286  17.974  1.00  0.00     0.000 C 
BRANCH   6   7
ATOM      7  C   UNL     1      17.226  19.808  18.359  1.00  0.00     0.000 C 
BRANCH   7   8
ATOM      8  C   UNL     1      18.675  19.461  18.735  1.00  0.00     0.000 C 
BRANCH   8   9
ATOM      9  C   UNL     1      18.961  19.622  20.238  1.00  0.00     0.000 C 
BRANCH   9  10
ATOM     10  C   UNL     1      17.708  19.750  21.124  1.00  0.00     0.000 C 
BRANCH  10  11
ATOM     11  C   UNL     1      17.620  21.109  21.842  1.00  0.00     0.000 C 
BRANCH  11  12
ATOM     12  C   UNL     1      18.670  22.116  21.339  1.00  0.00     0.006 C 
BRANCH  12  13
ATOM     13  C   UNL     1      18.740  23.415  22.158  1.00  0.00     0.053 C 
BRANCH  13  14
ATOM     14  C   UNL     1      19.905  24.269  21.759  1.00  0.00     0.041 C 
ATOM     15  O   UNL     1      19.841  24.979  20.722  1.00  0.00    -0.550 OA
ATOM     16  O   UNL     1      21.072  24.254  22.512  1.00  0.00    -0.550 OA
ENDBRANCH  13  14
ENDBRANCH  12  13
ENDBRANCH  11  12
ENDBRANCH  10  11
ENDBRANCH   9  10
ENDBRANCH   8   9
ENDBRANCH   7   8
ENDBRANCH   6   7
ENDBRANCH   5   6
ENDBRANCH   4   5
ENDBRANCH   3   4
ENDBRANCH   2   3
ENDBRANCH   1   2
BRANCH   1  17
ATOM     17  C   UNL     1      22.519  22.178  19.969  1.00  0.00     0.000 C 
BRANCH  17  18
ATOM     18  C   UNL     1      22.207  21.400  21.261  1.00  0.00     0.000 C 
BRANCH  18  19
ATOM     19  C   UNL     1      23.121  20.178  21.460  1.00  0.00     0.000 C 
BRANCH  19  20
ATOM     20  C   UNL     1      22.356  18.846  21.317  1.00  0.00     0.000 C 
BRANCH  20  21
ATOM     21  C   UNL     1      23.220  17.597  21.561  1.00  0.00     0.000 C 
BRANCH  21  22
ATOM     22  C   UNL     1      24.412  17.495  20.596  1.00  0.00    -0.000 C 
BRANCH  22  23
ATOM     23  C   UNL     1      24.083  16.721  19.305  1.00  0.00    -0.000 C 
BRANCH  23  24
ATOM     24  C   UNL     1      23.056  15.584  19.456  1.00  0.00    -0.000 C 
BRANCH  24  25
ATOM     25  C   UNL     1      21.904  15.672  18.440  1.00  0.00    -0.000 C 
BRANCH  25  26
ATOM     26  C   UNL     1      20.599  16.185  19.073  1.00  0.00    -0.000 C 
BRANCH  26  27
ATOM     27  C   UNL     1      20.304  15.537  20.433  1.00  0.00    -0.000 C 
BRANCH  27  28
ATOM     28  C   UNL     1      18.950  16.013  20.980  1.00  0.00    -0.000 C 
BRANCH  28  29
ATOM     29  C   UNL     1      19.048  16.545  22.418  1.00  0.00    -0.003 C 
ATOM     30  C   UNL     1      20.242  15.972  23.180  1.00  0.00     0.004 C 
ENDBRANCH  28  29
ENDBRANCH  27  28
ENDBRANCH  26  27
ENDBRANCH  25  26
ENDBRANCH  24  25
ENDBRANCH  23  24
ENDBRANCH  22  23
ENDBRANCH  21  22
ENDBRANCH  20  21
ENDBRANCH  19  20
ENDBRANCH  18  19
ENDBRANCH  17  18
ENDBRANCH   1  17
TORSDOF 26
ENDMDL
MODEL 7
REMARK VINA RESULT:    -3.966      1.388      2.166
REMARK INTER + INTRA:         -14.267
REMARK INTER:                  -9.798
REMARK INTRA:                  -4.470
REMARK UNBOUND:                -4.272
REMARK SMILES CCCCCCCCCCCCCCCCCCCCCCCCCCCC(=O)[O-]
REMARK SMILES IDX 15 1 16 2 17 3 18 4 19 5 20 6 21 7 22 8 23 9 24 10 25 11
REMARK SMILES IDX 26 12 27 13 28 14 29 15 30 16 14 17 13 18 12 19 11 20 10 21
REMARK SMILES IDX 9 22 8 23 7 24 6 25 5 26 4 27 3 28 2 29 1 30
REMARK H PARENT
REMARK Flexibility Score: inf
ROOT
ATOM      1  C   UNL     1      22.736  20.359  21.723  1.00  0.00     0.000 C 
ENDROOT
BRANCH   1   2
ATOM      2  C   UNL     1      23.607  19.330  20.979  1.00  0.00     0.000 C 
BRANCH   2   3
ATOM      3  C   UNL     1      23.097  17.891  21.135  1.00  0.00     0.000 C 
BRANCH   3   4
ATOM      4  C   UNL     1      21.602  17.833  21.496  1.00  0.00     0.000 C 
BRANCH   4   5
ATOM      5  C   UNL     1      20.999  16.433  21.290  1.00  0.00     0.000 C 
BRANCH   5   6
ATOM      6  C   UNL     1      21.311  15.858  19.900  1.00  0.00     0.000 C 
BRANCH   6   7
ATOM      7  C   UNL     1      20.159  16.118  18.921  1.00  0.00     0.000 C 
BRANCH   7   8
ATOM      8  C   UNL     1      18.804  15.790  19.567  1.00  0.00     0.000 C 
BRANCH   8   9
ATOM      9  C   UNL     1      17.797  16.950  19.473  1.00  0.00     0.000 C 
BRANCH   9  10
ATOM     10  C   UNL     1      16.878  17.109  20.697  1.00  0.00     0.000 C 
BRANCH  10  11
ATOM     11  C   UNL     1      17.389  16.343  21.931  1.00  0.00     0.000 C 
BRANCH  11  12
ATOM     12  C   UNL     1      17.785  17.278  23.089  1.00  0.00     0.006 C 
BRANCH  12  13
ATOM     13  C   UNL     1      17.971  16.566  24.438  1.00  0.00     0.053 C 
BRANCH  13  14
ATOM     14  C   UNL     1      19.369  16.708  24.960  1.00  0.00     0.041 C 
ATOM     15  O   UNL     1      19.662  17.661  25.727  1.00  0.00    -0.550 OA
ATOM     16  O   UNL     1      20.352  15.807  24.572  1.00  0.00    -0.550 OA
ENDBRANCH  13  14
ENDBRANCH  12  13
ENDBRANCH  11  12
ENDBRANCH  10  11
ENDBRANCH   9  10
ENDBRANCH   8   9
ENDBRANCH   7   8
ENDBRANCH   6   7
ENDBRANCH   5   6
ENDBRANCH   4   5
ENDBRANCH   3   4
ENDBRANCH   2   3
ENDBRANCH   1   2
BRANCH   1  17
ATOM     17  C   UNL     1      22.008  21.326  20.769  1.00  0.00     0.000 C 
BRANCH  17  18
ATOM     18  C   UNL     1      21.902  22.777  21.274  1.00  0.00     0.000 C 
BRANCH  18  19
ATOM     19  C   UNL     1      20.450  23.278  21.356  1.00  0.00     0.000 C 
BRANCH  19  20
ATOM     20  C   UNL     1      20.156  24.391  20.329  1.00  0.00     0.000 C 
BRANCH  20  21
ATOM     21  C   UNL     1      21.103  24.390  19.115  1.00  0.00     0.000 C 
BRANCH  21  22
ATOM     22  C   UNL     1      20.455  24.976  17.850  1.00  0.00    -0.000 C 
BRANCH  22  23
ATOM     23  C   UNL     1      19.490  23.999  17.154  1.00  0.00    -0.000 C 
BRANCH  23  24
ATOM     24  C   UNL     1      19.799  22.503  17.354  1.00  0.00    -0.000 C 
BRANCH  24  25
ATOM     25  C   UNL     1      18.536  21.639  17.498  1.00  0.00    -0.000 C 
BRANCH  25  26
ATOM     26  C   UNL     1      18.056  21.535  18.955  1.00  0.00    -0.000 C 
BRANCH  26  27
ATOM     27  C   UNL     1      18.713  20.374  19.716  1.00  0.00    -0.000 C 
BRANCH  27  28
ATOM     28  C   UNL     1      18.345  20.422  21.206  1.00  0.00    -0.000 C 
BRANCH  28  29
ATOM     29  C   UNL     1      17.204  21.407  21.502  1.00  0.00    -0.003 C 
ATOM     30  C   UNL     1      17.337  22.072  22.872  1.00  0.00     0.004 C 
ENDBRANCH  28  29
ENDBRANCH  27  28
ENDBRANCH  26  27
ENDBRANCH  25  26
ENDBRANCH  24  25
ENDBRANCH  23  24
ENDBRANCH  22  23
ENDBRANCH  21  22
ENDBRANCH  20  21
ENDBRANCH  19  20
ENDBRANCH  18  19
ENDBRANCH  17  18
ENDBRANCH   1  17
TORSDOF 26
ENDMDL
MODEL 8
REMARK VINA RESULT:    -3.912      2.263      5.183
REMARK INTER + INTRA:         -14.130
REMARK INTER:                 -10.003
REMARK INTRA:                  -4.127
REMARK UNBOUND:                -4.272
REMARK SMILES CCCCCCCCCCCCCCCCCCCCCCCCCCCC(=O)[O-]
REMARK SMILES IDX 15 1 16 2 17 3 18 4 19 5 20 6 21 7 22 8 23 9 24 10 25 11
REMARK SMILES IDX 26 12 27 13 28 14 29 15 30 16 14 17 13 18 12 19 11 20 10 21
REMARK SMILES IDX 9 22 8 23 7 24 6 25 5 26 4 27 3 28 2 29 1 30
REMARK H PARENT
REMARK Flexibility Score: inf
ROOT
ATOM      1  C   UNL     1      19.540  24.644  20.533  1.00  0.00     0.000 C 
ENDROOT
BRANCH   1   2
ATOM      2  C   UNL     1      20.123  23.883  21.737  1.00  0.00     0.000 C 
BRANCH   2   3
ATOM      3  C   UNL     1      20.588  22.465  21.379  1.00  0.00     0.000 C 
BRANCH   3   4
ATOM      4  C   UNL     1      22.111  22.379  21.173  1.00  0.00     0.000 C 
BRANCH   4   5
ATOM      5  C   UNL     1      22.560  21.006  20.648  1.00  0.00     0.000 C 
BRANCH   5   6
ATOM      6  C   UNL     1      22.742  19.977  21.775  1.00  0.00     0.000 C 
BRANCH   6   7
ATOM      7  C   UNL     1      23.324  18.663  21.239  1.00  0.00     0.000 C 
BRANCH   7   8
ATOM      8  C   UNL     1      24.596  18.922  20.415  1.00  0.00     0.000 C 
BRANCH   8   9
ATOM      9  C   UNL     1      25.757  17.987  20.795  1.00  0.00     0.000 C 
BRANCH   9  10
ATOM     10  C   UNL     1      26.479  17.336  19.602  1.00  0.00     0.000 C 
BRANCH  10  11
ATOM     11  C   UNL     1      25.517  16.928  18.471  1.00  0.00     0.000 C 
BRANCH  11  12
ATOM     12  C   UNL     1      24.756  15.625  18.779  1.00  0.00     0.006 C 
BRANCH  12  13
ATOM     13  C   UNL     1      23.758  15.205  17.688  1.00  0.00     0.053 C 
BRANCH  13  14
ATOM     14  C   UNL     1      22.341  15.485  18.086  1.00  0.00     0.041 C 
ATOM     15  O   UNL     1      21.397  15.188  17.308  1.00  0.00    -0.550 OA
ATOM     16  O   UNL     1      22.065  16.102  19.299  1.00  0.00    -0.550 OA
ENDBRANCH  13  14
ENDBRANCH  12  13
ENDBRANCH  11  12
ENDBRANCH  10  11
ENDBRANCH   9  10
ENDBRANCH   8   9
ENDBRANCH   7   8
ENDBRANCH   6   7
ENDBRANCH   5   6
ENDBRANCH   4   5
ENDBRANCH   3   4
ENDBRANCH   2   3
ENDBRANCH   1   2
BRANCH   1  17
ATOM     17  C   UNL     1      20.617  25.386  19.718  1.00  0.00     0.000 C 
BRANCH  17  18
ATOM     18  C   UNL     1      21.006  24.710  18.390  1.00  0.00     0.000 C 
BRANCH  18  19
ATOM     19  C   UNL     1      19.855  23.899  17.771  1.00  0.00     0.000 C 
BRANCH  19  20
ATOM     20  C   UNL     1      20.162  22.388  17.726  1.00  0.00     0.000 C 
BRANCH  20  21
ATOM     21  C   UNL     1      18.910  21.492  17.741  1.00  0.00     0.000 C 
BRANCH  21  22
ATOM     22  C   UNL     1      17.809  22.018  18.676  1.00  0.00    -0.000 C 
BRANCH  22  23
ATOM     23  C   UNL     1      17.096  20.901  19.462  1.00  0.00    -0.000 C 
BRANCH  23  24
ATOM     24  C   UNL     1      17.177  21.012  20.996  1.00  0.00    -0.000 C 
BRANCH  24  25
ATOM     25  C   UNL     1      17.890  19.818  21.651  1.00  0.00    -0.000 C 
BRANCH  25  26
ATOM     26  C   UNL     1      19.106  19.340  20.840  1.00  0.00    -0.000 C 
BRANCH  26  27
ATOM     27  C   UNL     1      19.239  17.811  20.813  1.00  0.00    -0.000 C 
BRANCH  27  28
ATOM     28  C   UNL     1      20.019  17.309  22.037  1.00  0.00    -0.000 C 
BRANCH  28  29
ATOM     29  C   UNL     1      19.154  16.460  22.981  1.00  0.00    -0.003 C 
ATOM     30  C   UNL     1      18.814  17.186  24.283  1.00  0.00     0.004 C 
ENDBRANCH  28  29
ENDBRANCH  27  28
ENDBRANCH  26  27
ENDBRANCH  25  26
ENDBRANCH  24  25
ENDBRANCH  23  24
ENDBRANCH  22  23
ENDBRANCH  21  22
ENDBRANCH  20  21
ENDBRANCH  19  20
ENDBRANCH  18  19
ENDBRANCH  17  18
ENDBRANCH   1  17
TORSDOF 26
ENDMDL
MODEL 9
REMARK VINA RESULT:    -3.899      3.150      6.993
REMARK INTER + INTRA:         -14.097
REMARK INTER:                  -9.731
REMARK INTRA:                  -4.366
REMARK UNBOUND:                -4.272
REMARK SMILES CCCCCCCCCCCCCCCCCCCCCCCCCCCC(=O)[O-]
REMARK SMILES IDX 15 1 16 2 17 3 18 4 19 5 20 6 21 7 22 8 23 9 24 10 25 11
REMARK SMILES IDX 26 12 27 13 28 14 29 15 30 16 14 17 13 18 12 19 11 20 10 21
REMARK SMILES IDX 9 22 8 23 7 24 6 25 5 26 4 27 3 28 2 29 1 30
REMARK H PARENT
REMARK Flexibility Score: inf
ROOT
ATOM      1  C   UNL     1      21.647  23.019  21.746  1.00  0.00     0.000 C 
ENDROOT
BRANCH   1   2
ATOM      2  C   UNL     1      20.402  23.893  21.512  1.00  0.00     0.000 C 
BRANCH   2   3
ATOM      3  C   UNL     1      19.093  23.090  21.544  1.00  0.00     0.000 C 
BRANCH   3   4
ATOM      4  C   UNL     1      18.408  23.136  22.922  1.00  0.00     0.000 C 
BRANCH   4   5
ATOM      5  C   UNL     1      17.265  22.115  23.047  1.00  0.00     0.000 C 
BRANCH   5   6
ATOM      6  C   UNL     1      17.010  21.355  21.735  1.00  0.00     0.000 C 
BRANCH   6   7
ATOM      7  C   UNL     1      17.238  19.849  21.914  1.00  0.00     0.000 C 
BRANCH   7   8
ATOM      8  C   UNL     1      18.499  19.392  21.163  1.00  0.00     0.000 C 
BRANCH   8   9
ATOM      9  C   UNL     1      18.201  18.887  19.740  1.00  0.00     0.000 C 
BRANCH   9  10
ATOM     10  C   UNL     1      18.703  19.803  18.611  1.00  0.00     0.000 C 
BRANCH  10  11
ATOM     11  C   UNL     1      17.651  20.834  18.164  1.00  0.00     0.000 C 
BRANCH  11  12
ATOM     12  C   UNL     1      18.272  22.041  17.437  1.00  0.00     0.006 C 
BRANCH  12  13
ATOM     13  C   UNL     1      19.729  22.332  17.831  1.00  0.00     0.053 C 
BRANCH  13  14
ATOM     14  C   UNL     1      20.059  23.789  17.725  1.00  0.00     0.041 C 
ATOM     15  O   UNL     1      19.204  24.600  17.282  1.00  0.00    -0.550 OA
ATOM     16  O   UNL     1      21.321  24.247  18.084  1.00  0.00    -0.550 OA
ENDBRANCH  13  14
ENDBRANCH  12  13
ENDBRANCH  11  12
ENDBRANCH  10  11
ENDBRANCH   9  10
ENDBRANCH   8   9
ENDBRANCH   7   8
ENDBRANCH   6   7
ENDBRANCH   5   6
ENDBRANCH   4   5
ENDBRANCH   3   4
ENDBRANCH   2   3
ENDBRANCH   1   2
BRANCH   1  17
ATOM     17  C   UNL     1      21.923  22.048  20.581  1.00  0.00     0.000 C 
BRANCH  17  18
ATOM     18  C   UNL     1      21.809  20.555  20.940  1.00  0.00     0.000 C 
BRANCH  18  19
ATOM     19  C   UNL     1      23.017  20.038  21.741  1.00  0.00     0.000 C 
BRANCH  19  20
ATOM     20  C   UNL     1      23.900  19.081  20.914  1.00  0.00     0.000 C 
BRANCH  20  21
ATOM     21  C   UNL     1      23.807  17.608  21.349  1.00  0.00     0.000 C 
BRANCH  21  22
ATOM     22  C   UNL     1      22.705  16.833  20.608  1.00  0.00    -0.000 C 
BRANCH  22  23
ATOM     23  C   UNL     1      21.406  16.696  21.423  1.00  0.00    -0.000 C 
BRANCH  23  24
ATOM     24  C   UNL     1      20.702  15.329  21.327  1.00  0.00    -0.000 C 
BRANCH  24  25
ATOM     25  C   UNL     1      19.196  15.444  21.043  1.00  0.00    -0.000 C 
BRANCH  25  26
ATOM     26  C   UNL     1      18.335  15.053  22.257  1.00  0.00    -0.000 C 
BRANCH  26  27
ATOM     27  C   UNL     1      17.406  16.187  22.715  1.00  0.00    -0.000 C 
BRANCH  27  28
ATOM     28  C   UNL     1      17.760  16.640  24.139  1.00  0.00    -0.000 C 
BRANCH  28  29
ATOM     29  C   UNL     1      19.196  17.174  24.249  1.00  0.00    -0.003 C 
ATOM     30  C   UNL     1      19.713  17.189  25.687  1.00  0.00     0.004 C 
ENDBRANCH  28  29
ENDBRANCH  27  28
ENDBRANCH  26  27
ENDBRANCH  25  26
ENDBRANCH  24  25
ENDBRANCH  23  24
ENDBRANCH  22  23
ENDBRANCH  21  22
ENDBRANCH  20  21
ENDBRANCH  19  20
ENDBRANCH  18  19
ENDBRANCH  17  18
ENDBRANCH   1  17
TORSDOF 26
ENDMDL
