MODEL 1
REMARK VINA RESULT:    -3.422      0.000      0.000
REMARK INTER + INTRA:         -11.693
REMARK INTER:                  -7.823
REMARK INTRA:                  -3.871
REMARK UNBOUND:                -3.871
REMARK SMILES CCCCCCCCCCCCCCCCCCCCCCCC(=O)[O-]
REMARK SMILES IDX 13 1 14 2 15 3 16 4 17 5 18 6 19 7 20 8 21 9 22 10 23 11
REMARK SMILES IDX 24 12 25 13 26 14 12 15 11 16 10 17 9 18 8 19 7 20 6 21 5 22
REMARK SMILES IDX 4 23 3 24 2 25 1 26
REMARK H PARENT
REMARK Flexibility Score: inf
ROOT
ATOM      1  C   UNL     1     -95.489 149.201 237.098  1.00  0.00     0.000 C 
ENDROOT
BRANCH   1   2
ATOM      2  C   UNL     1     -95.097 149.232 235.611  1.00  0.00     0.000 C 
BRANCH   2   3
ATOM      3  C   UNL     1     -94.277 148.003 235.184  1.00  0.00     0.000 C 
BRANCH   3   4
ATOM      4  C   UNL     1     -95.147 146.913 234.531  1.00  0.00     0.000 C 
BRANCH   4   5
ATOM      5  C   UNL     1     -95.247 147.073 233.006  1.00  0.00     0.000 C 
BRANCH   5   6
ATOM      6  C   UNL     1     -93.957 147.638 232.383  1.00  0.00     0.000 C 
BRANCH   6   7
ATOM      7  C   UNL     1     -94.211 148.921 231.576  1.00  0.00     0.000 C 
BRANCH   7   8
ATOM      8  C   UNL     1     -95.547 149.591 231.946  1.00  0.00     0.000 C 
BRANCH   8   9
ATOM      9  C   UNL     1     -95.384 151.060 232.372  1.00  0.00     0.000 C 
BRANCH   9  10
ATOM     10  C   UNL     1     -96.671 151.740 232.882  1.00  0.00     0.006 C 
BRANCH  10  11
ATOM     11  C   UNL     1     -96.846 153.198 232.429  1.00  0.00     0.053 C 
BRANCH  11  12
ATOM     12  C   UNL     1     -97.803 153.949 233.305  1.00  0.00     0.041 C 
ATOM     13  O   UNL     1     -98.697 153.331 233.940  1.00  0.00    -0.550 OA
ATOM     14  O   UNL     1     -97.715 155.332 233.409  1.00  0.00    -0.550 OA
ENDBRANCH  11  12
ENDBRANCH  10  11
ENDBRANCH   9  10
ENDBRANCH   8   9
ENDBRANCH   7   8
ENDBRANCH   6   7
ENDBRANCH   5   6
ENDBRANCH   4   5
ENDBRANCH   3   4
ENDBRANCH   2   3
ENDBRANCH   1   2
BRANCH   1  15
ATOM     15  C   UNL     1     -94.491 148.376 237.941  1.00  0.00     0.000 C 
BRANCH  15  16
ATOM     16  C   UNL     1     -95.164 147.511 239.019  1.00  0.00     0.000 C 
BRANCH  16  17
ATOM     17  C   UNL     1     -96.681 147.363 238.809  1.00  0.00     0.000 C 
BRANCH  17  18
ATOM     18  C   UNL     1     -97.473 147.496 240.127  1.00  0.00    -0.000 C 
BRANCH  18  19
ATOM     19  C   UNL     1     -98.554 148.595 240.104  1.00  0.00    -0.000 C 
BRANCH  19  20
ATOM     20  C   UNL     1     -98.042 150.025 240.346  1.00  0.00    -0.000 C 
BRANCH  20  21
ATOM     21  C   UNL     1     -98.061 150.891 239.074  1.00  0.00    -0.000 C 
BRANCH  21  22
ATOM     22  C   UNL     1     -99.308 150.643 238.206  1.00  0.00    -0.000 C 
BRANCH  22  23
ATOM     23  C   UNL     1     -99.220 151.204 236.775  1.00  0.00    -0.000 C 
BRANCH  23  24
ATOM     24  C   UNL     1     -98.933 150.116 235.724  1.00  0.00    -0.000 C 
BRANCH  24  25
ATOM     25  C   UNL     1     -99.101 148.696 236.286  1.00  0.00    -0.003 C 
ATOM     26  C   UNL     1     -98.580 147.620 235.334  1.00  0.00     0.004 C 
ENDBRANCH  24  25
ENDBRANCH  23  24
ENDBRANCH  22  23
ENDBRANCH  21  22
ENDBRANCH  20  21
ENDBRANCH  19  20
ENDBRANCH  18  19
ENDBRANCH  17  18
ENDBRANCH  16  17
ENDBRANCH  15  16
ENDBRANCH   1  15
TORSDOF 22
ENDMDL
MODEL 2
REMARK VINA RESULT:    -3.418      1.476      3.756
REMARK INTER + INTRA:         -11.685
REMARK INTER:                  -7.642
REMARK INTRA:                  -4.044
REMARK UNBOUND:                -3.871
REMARK SMILES CCCCCCCCCCCCCCCCCCCCCCCC(=O)[O-]
REMARK SMILES IDX 13 1 14 2 15 3 16 4 17 5 18 6 19 7 20 8 21 9 22 10 23 11
REMARK SMILES IDX 24 12 25 13 26 14 12 15 11 16 10 17 9 18 8 19 7 20 6 21 5 22
REMARK SMILES IDX 4 23 3 24 2 25 1 26
REMARK H PARENT
REMARK Flexibility Score: inf
ROOT
ATOM      1  C   UNL     1     -98.598 149.943 233.550  1.00  0.00     0.000 C 
ENDROOT
BRANCH   1   2
ATOM      2  C   UNL     1     -98.564 148.648 232.721  1.00  0.00     0.000 C 
BRANCH   2   3
ATOM      3  C   UNL     1     -97.841 148.821 231.374  1.00  0.00     0.000 C 
BRANCH   3   4
ATOM      4  C   UNL     1     -96.354 148.431 231.449  1.00  0.00     0.000 C 
BRANCH   4   5
ATOM      5  C   UNL     1     -95.419 149.583 231.051  1.00  0.00     0.000 C 
BRANCH   5   6
ATOM      6  C   UNL     1     -95.052 150.486 232.244  1.00  0.00     0.000 C 
BRANCH   6   7
ATOM      7  C   UNL     1     -95.707 151.874 232.149  1.00  0.00     0.000 C 
BRANCH   7   8
ATOM      8  C   UNL     1     -96.240 152.175 230.736  1.00  0.00     0.000 C 
BRANCH   8   9
ATOM      9  C   UNL     1     -97.741 152.512 230.721  1.00  0.00     0.000 C 
BRANCH   9  10
ATOM     10  C   UNL     1     -98.073 154.018 230.766  1.00  0.00     0.006 C 
BRANCH  10  11
ATOM     11  C   UNL     1     -99.001 154.433 231.920  1.00  0.00     0.053 C 
BRANCH  11  12
ATOM     12  C   UNL     1     -98.370 154.204 233.260  1.00  0.00     0.041 C 
ATOM     13  O   UNL     1     -97.283 154.767 233.552  1.00  0.00    -0.550 OA
ATOM     14  O   UNL     1     -98.977 153.358 234.180  1.00  0.00    -0.550 OA
ENDBRANCH  11  12
ENDBRANCH  10  11
ENDBRANCH   9  10
ENDBRANCH   8   9
ENDBRANCH   7   8
ENDBRANCH   6   7
ENDBRANCH   5   6
ENDBRANCH   4   5
ENDBRANCH   3   4
ENDBRANCH   2   3
ENDBRANCH   1   2
BRANCH   1  15
ATOM     15  C   UNL     1     -97.639 149.880 234.759  1.00  0.00     0.000 C 
BRANCH  15  16
ATOM     16  C   UNL     1     -97.315 148.447 235.213  1.00  0.00     0.000 C 
BRANCH  16  17
ATOM     17  C   UNL     1     -95.817 148.110 235.112  1.00  0.00     0.000 C 
BRANCH  17  18
ATOM     18  C   UNL     1     -94.925 149.194 235.754  1.00  0.00    -0.000 C 
BRANCH  18  19
ATOM     19  C   UNL     1     -94.090 148.694 236.949  1.00  0.00    -0.000 C 
BRANCH  19  20
ATOM     20  C   UNL     1     -94.656 149.039 238.337  1.00  0.00    -0.000 C 
BRANCH  20  21
ATOM     21  C   UNL     1     -95.693 148.015 238.832  1.00  0.00    -0.000 C 
BRANCH  21  22
ATOM     22  C   UNL     1     -96.985 148.680 239.341  1.00  0.00    -0.000 C 
BRANCH  22  23
ATOM     23  C   UNL     1     -96.990 150.219 239.268  1.00  0.00    -0.000 C 
BRANCH  23  24
ATOM     24  C   UNL     1     -98.411 150.809 239.235  1.00  0.00    -0.000 C 
BRANCH  24  25
ATOM     25  C   UNL     1     -99.040 150.754 237.834  1.00  0.00    -0.003 C 
ATOM     26  C   UNL     1    -100.372 150.007 237.814  1.00  0.00     0.004 C 
ENDBRANCH  24  25
ENDBRANCH  23  24
ENDBRANCH  22  23
ENDBRANCH  21  22
ENDBRANCH  20  21
ENDBRANCH  19  20
ENDBRANCH  18  19
ENDBRANCH  17  18
ENDBRANCH  16  17
ENDBRANCH  15  16
ENDBRANCH   1  15
TORSDOF 22
ENDMDL
MODEL 3
REMARK VINA RESULT:    -3.392      1.299      2.750
REMARK INTER + INTRA:         -11.626
REMARK INTER:                  -7.428
REMARK INTRA:                  -4.198
REMARK UNBOUND:                -3.871
REMARK SMILES CCCCCCCCCCCCCCCCCCCCCCCC(=O)[O-]
REMARK SMILES IDX 13 1 14 2 15 3 16 4 17 5 18 6 19 7 20 8 21 9 22 10 23 11
REMARK SMILES IDX 24 12 25 13 26 14 12 15 11 16 10 17 9 18 8 19 7 20 6 21 5 22
REMARK SMILES IDX 4 23 3 24 2 25 1 26
REMARK H PARENT
REMARK Flexibility Score: inf
ROOT
ATOM      1  C   UNL     1     -95.196 149.398 235.189  1.00  0.00     0.000 C 
ENDROOT
BRANCH   1   2
ATOM      2  C   UNL     1     -96.729 149.529 235.150  1.00  0.00     0.000 C 
BRANCH   2   3
ATOM      3  C   UNL     1     -97.419 148.291 234.554  1.00  0.00     0.000 C 
BRANCH   3   4
ATOM      4  C   UNL     1     -98.708 148.646 233.791  1.00  0.00     0.000 C 
BRANCH   4   5
ATOM      5  C   UNL     1     -98.495 148.715 232.270  1.00  0.00     0.000 C 
BRANCH   5   6
ATOM      6  C   UNL     1     -97.089 148.249 231.848  1.00  0.00     0.000 C 
BRANCH   6   7
ATOM      7  C   UNL     1     -96.431 149.210 230.845  1.00  0.00     0.000 C 
BRANCH   7   8
ATOM      8  C   UNL     1     -95.358 150.098 231.503  1.00  0.00     0.000 C 
BRANCH   8   9
ATOM      9  C   UNL     1     -95.694 151.598 231.428  1.00  0.00     0.000 C 
BRANCH   9  10
ATOM     10  C   UNL     1     -96.333 152.188 232.701  1.00  0.00     0.006 C 
BRANCH  10  11
ATOM     11  C   UNL     1     -97.819 152.557 232.558  1.00  0.00     0.053 C 
BRANCH  11  12
ATOM     12  C   UNL     1     -98.202 153.703 233.445  1.00  0.00     0.041 C 
ATOM     13  O   UNL     1     -99.337 153.730 233.988  1.00  0.00    -0.550 OA
ATOM     14  O   UNL     1     -97.311 154.747 233.659  1.00  0.00    -0.550 OA
ENDBRANCH  11  12
ENDBRANCH  10  11
ENDBRANCH   9  10
ENDBRANCH   8   9
ENDBRANCH   7   8
ENDBRANCH   6   7
ENDBRANCH   5   6
ENDBRANCH   4   5
ENDBRANCH   3   4
ENDBRANCH   2   3
ENDBRANCH   1   2
BRANCH   1  15
ATOM     15  C   UNL     1     -94.714 148.079 234.546  1.00  0.00     0.000 C 
BRANCH  15  16
ATOM     16  C   UNL     1     -93.864 147.211 235.487  1.00  0.00     0.000 C 
BRANCH  16  17
ATOM     17  C   UNL     1     -93.657 147.850 236.871  1.00  0.00     0.000 C 
BRANCH  17  18
ATOM     18  C   UNL     1     -94.357 147.058 237.996  1.00  0.00    -0.000 C 
BRANCH  18  19
ATOM     19  C   UNL     1     -95.888 147.228 238.028  1.00  0.00    -0.000 C 
BRANCH  19  20
ATOM     20  C   UNL     1     -96.418 148.212 239.084  1.00  0.00    -0.000 C 
BRANCH  20  21
ATOM     21  C   UNL     1     -96.063 149.676 238.771  1.00  0.00    -0.000 C 
BRANCH  21  22
ATOM     22  C   UNL     1     -97.161 150.660 239.216  1.00  0.00    -0.000 C 
BRANCH  22  23
ATOM     23  C   UNL     1     -98.423 149.997 239.799  1.00  0.00    -0.000 C 
BRANCH  23  24
ATOM     24  C   UNL     1     -99.684 150.275 238.962  1.00  0.00    -0.000 C 
BRANCH  24  25
ATOM     25  C   UNL     1     -99.437 150.114 237.453  1.00  0.00    -0.003 C 
ATOM     26  C   UNL     1     -99.621 151.420 236.683  1.00  0.00     0.004 C 
ENDBRANCH  24  25
ENDBRANCH  23  24
ENDBRANCH  22  23
ENDBRANCH  21  22
ENDBRANCH  20  21
ENDBRANCH  19  20
ENDBRANCH  18  19
ENDBRANCH  17  18
ENDBRANCH  16  17
ENDBRANCH  15  16
ENDBRANCH   1  15
TORSDOF 22
ENDMDL
MODEL 4
REMARK VINA RESULT:    -3.384      1.797      3.806
REMARK INTER + INTRA:         -11.607
REMARK INTER:                  -8.596
REMARK INTRA:                  -3.011
REMARK UNBOUND:                -3.871
REMARK SMILES CCCCCCCCCCCCCCCCCCCCCCCC(=O)[O-]
REMARK SMILES IDX 13 1 14 2 15 3 16 4 17 5 18 6 19 7 20 8 21 9 22 10 23 11
REMARK SMILES IDX 24 12 25 13 26 14 12 15 11 16 10 17 9 18 8 19 7 20 6 21 5 22
REMARK SMILES IDX 4 23 3 24 2 25 1 26
REMARK H PARENT
REMARK Flexibility Score: inf
ROOT
ATOM      1  C   UNL     1     -95.514 149.479 235.257  1.00  0.00     0.000 C 
ENDROOT
BRANCH   1   2
ATOM      2  C   UNL     1     -96.987 149.034 235.254  1.00  0.00     0.000 C 
BRANCH   2   3
ATOM      3  C   UNL     1     -97.943 150.139 234.773  1.00  0.00     0.000 C 
BRANCH   3   4
ATOM      4  C   UNL     1     -98.788 149.700 233.563  1.00  0.00     0.000 C 
BRANCH   4   5
ATOM      5  C   UNL     1     -97.966 148.932 232.516  1.00  0.00     0.000 C 
BRANCH   5   6
ATOM      6  C   UNL     1     -97.339 149.861 231.459  1.00  0.00     0.000 C 
BRANCH   6   7
ATOM      7  C   UNL     1     -95.810 149.952 231.596  1.00  0.00     0.000 C 
BRANCH   7   8
ATOM      8  C   UNL     1     -95.352 151.317 232.141  1.00  0.00     0.000 C 
BRANCH   8   9
ATOM      9  C   UNL     1     -96.313 152.462 231.777  1.00  0.00     0.000 C 
BRANCH   9  10
ATOM     10  C   UNL     1     -96.841 153.278 232.974  1.00  0.00     0.006 C 
BRANCH  10  11
ATOM     11  C   UNL     1     -98.355 153.542 232.949  1.00  0.00     0.053 C 
BRANCH  11  12
ATOM     12  C   UNL     1     -98.674 154.951 232.550  1.00  0.00     0.041 C 
ATOM     13  O   UNL     1     -98.359 155.372 231.407  1.00  0.00    -0.550 OA
ATOM     14  O   UNL     1     -99.307 155.803 233.448  1.00  0.00    -0.550 OA
ENDBRANCH  11  12
ENDBRANCH  10  11
ENDBRANCH   9  10
ENDBRANCH   8   9
ENDBRANCH   7   8
ENDBRANCH   6   7
ENDBRANCH   5   6
ENDBRANCH   4   5
ENDBRANCH   3   4
ENDBRANCH   2   3
ENDBRANCH   1   2
BRANCH   1  15
ATOM     15  C   UNL     1     -94.550 148.279 235.379  1.00  0.00     0.000 C 
BRANCH  15  16
ATOM     16  C   UNL     1     -93.890 148.157 236.762  1.00  0.00     0.000 C 
BRANCH  16  17
ATOM     17  C   UNL     1     -94.555 147.093 237.652  1.00  0.00     0.000 C 
BRANCH  17  18
ATOM     18  C   UNL     1     -95.046 147.674 238.996  1.00  0.00    -0.000 C 
BRANCH  18  19
ATOM     19  C   UNL     1     -96.399 148.407 238.908  1.00  0.00    -0.000 C 
BRANCH  19  20
ATOM     20  C   UNL     1     -96.313 149.943 238.881  1.00  0.00    -0.000 C 
BRANCH  20  21
ATOM     21  C   UNL     1     -97.617 150.624 239.333  1.00  0.00    -0.000 C 
BRANCH  21  22
ATOM     22  C   UNL     1     -98.562 149.660 240.073  1.00  0.00    -0.000 C 
BRANCH  22  23
ATOM     23  C   UNL     1     -98.425 149.674 241.607  1.00  0.00    -0.000 C 
BRANCH  23  24
ATOM     24  C   UNL     1     -99.411 150.642 242.285  1.00  0.00    -0.000 C 
BRANCH  24  25
ATOM     25  C   UNL     1     -98.783 151.385 243.475  1.00  0.00    -0.003 C 
ATOM     26  C   UNL     1     -99.479 152.712 243.774  1.00  0.00     0.004 C 
ENDBRANCH  24  25
ENDBRANCH  23  24
ENDBRANCH  22  23
ENDBRANCH  21  22
ENDBRANCH  20  21
ENDBRANCH  19  20
ENDBRANCH  18  19
ENDBRANCH  17  18
ENDBRANCH  16  17
ENDBRANCH  15  16
ENDBRANCH   1  15
TORSDOF 22
ENDMDL
MODEL 5
REMARK VINA RESULT:    -3.374      2.995      6.958
REMARK INTER + INTRA:         -11.584
REMARK INTER:                  -7.301
REMARK INTRA:                  -4.283
REMARK UNBOUND:                -3.871
REMARK SMILES CCCCCCCCCCCCCCCCCCCCCCCC(=O)[O-]
REMARK SMILES IDX 13 1 14 2 15 3 16 4 17 5 18 6 19 7 20 8 21 9 22 10 23 11
REMARK SMILES IDX 24 12 25 13 26 14 12 15 11 16 10 17 9 18 8 19 7 20 6 21 5 22
REMARK SMILES IDX 4 23 3 24 2 25 1 26
REMARK H PARENT
REMARK Flexibility Score: inf
ROOT
ATOM      1  C   UNL     1     -99.822 150.941 235.137  1.00  0.00     0.000 C 
ENDROOT
BRANCH   1   2
ATOM      2  C   UNL     1     -99.121 149.736 235.788  1.00  0.00     0.000 C 
BRANCH   2   3
ATOM      3  C   UNL     1     -97.660 149.578 235.332  1.00  0.00     0.000 C 
BRANCH   3   4
ATOM      4  C   UNL     1     -97.186 148.115 235.373  1.00  0.00     0.000 C 
BRANCH   4   5
ATOM      5  C   UNL     1     -95.655 147.987 235.335  1.00  0.00     0.000 C 
BRANCH   5   6
ATOM      6  C   UNL     1     -94.944 149.227 235.909  1.00  0.00     0.000 C 
BRANCH   6   7
ATOM      7  C   UNL     1     -94.048 148.883 237.110  1.00  0.00     0.000 C 
BRANCH   7   8
ATOM      8  C   UNL     1     -94.861 148.620 238.391  1.00  0.00     0.000 C 
BRANCH   8   9
ATOM      9  C   UNL     1     -95.871 149.739 238.700  1.00  0.00     0.000 C 
BRANCH   9  10
ATOM     10  C   UNL     1     -97.301 149.258 239.018  1.00  0.00     0.006 C 
BRANCH  10  11
ATOM     11  C   UNL     1     -98.184 150.300 239.725  1.00  0.00     0.053 C 
BRANCH  11  12
ATOM     12  C   UNL     1     -98.421 149.954 241.163  1.00  0.00     0.041 C 
ATOM     13  O   UNL     1     -98.894 150.814 241.951  1.00  0.00    -0.550 OA
ATOM     14  O   UNL     1     -98.107 148.685 241.636  1.00  0.00    -0.550 OA
ENDBRANCH  11  12
ENDBRANCH  10  11
ENDBRANCH   9  10
ENDBRANCH   8   9
ENDBRANCH   7   8
ENDBRANCH   6   7
ENDBRANCH   5   6
ENDBRANCH   4   5
ENDBRANCH   3   4
ENDBRANCH   2   3
ENDBRANCH   1   2
BRANCH   1  15
ATOM     15  C   UNL     1     -98.986 151.543 233.986  1.00  0.00     0.000 C 
BRANCH  15  16
ATOM     16  C   UNL     1     -98.964 153.080 233.981  1.00  0.00     0.000 C 
BRANCH  16  17
ATOM     17  C   UNL     1     -97.692 153.659 233.337  1.00  0.00     0.000 C 
BRANCH  17  18
ATOM     18  C   UNL     1     -97.534 153.236 231.861  1.00  0.00    -0.000 C 
BRANCH  18  19
ATOM     19  C   UNL     1     -96.214 152.502 231.554  1.00  0.00    -0.000 C 
BRANCH  19  20
ATOM     20  C   UNL     1     -95.663 151.635 232.699  1.00  0.00    -0.000 C 
BRANCH  20  21
ATOM     21  C   UNL     1     -95.522 150.152 232.313  1.00  0.00    -0.000 C 
BRANCH  21  22
ATOM     22  C   UNL     1     -96.570 149.708 231.276  1.00  0.00    -0.000 C 
BRANCH  22  23
ATOM     23  C   UNL     1     -97.701 148.828 231.838  1.00  0.00    -0.000 C 
BRANCH  23  24
ATOM     24  C   UNL     1     -99.038 149.033 231.105  1.00  0.00    -0.000 C 
BRANCH  24  25
ATOM     25  C   UNL     1     -99.072 150.341 230.298  1.00  0.00    -0.003 C 
ATOM     26  C   UNL     1    -100.328 151.168 230.569  1.00  0.00     0.004 C 
ENDBRANCH  24  25
ENDBRANCH  23  24
ENDBRANCH  22  23
ENDBRANCH  21  22
ENDBRANCH  20  21
ENDBRANCH  19  20
ENDBRANCH  18  19
ENDBRANCH  17  18
ENDBRANCH  16  17
ENDBRANCH  15  16
ENDBRANCH   1  15
TORSDOF 22
ENDMDL
MODEL 6
REMARK VINA RESULT:    -3.325      1.781      2.695
REMARK INTER + INTRA:         -11.473
REMARK INTER:                  -7.850
REMARK INTRA:                  -3.623
REMARK UNBOUND:                -3.871
REMARK SMILES CCCCCCCCCCCCCCCCCCCCCCCC(=O)[O-]
REMARK SMILES IDX 13 1 14 2 15 3 16 4 17 5 18 6 19 7 20 8 21 9 22 10 23 11
REMARK SMILES IDX 24 12 25 13 26 14 12 15 11 16 10 17 9 18 8 19 7 20 6 21 5 22
REMARK SMILES IDX 4 23 3 24 2 25 1 26
REMARK H PARENT
REMARK Flexibility Score: inf
ROOT
ATOM      1  C   UNL     1     -94.036 148.660 237.123  1.00  0.00     0.000 C 
ENDROOT
BRANCH   1   2
ATOM      2  C   UNL     1     -94.927 149.018 235.920  1.00  0.00     0.000 C 
BRANCH   2   3
ATOM      3  C   UNL     1     -95.502 147.778 235.214  1.00  0.00     0.000 C 
BRANCH   3   4
ATOM      4  C   UNL     1     -94.466 147.079 234.316  1.00  0.00     0.000 C 
BRANCH   4   5
ATOM      5  C   UNL     1     -94.798 147.204 232.821  1.00  0.00     0.000 C 
BRANCH   5   6
ATOM      6  C   UNL     1     -93.871 148.192 232.089  1.00  0.00     0.000 C 
BRANCH   6   7
ATOM      7  C   UNL     1     -94.654 149.253 231.300  1.00  0.00     0.000 C 
BRANCH   7   8
ATOM      8  C   UNL     1     -96.018 149.570 231.939  1.00  0.00     0.000 C 
BRANCH   8   9
ATOM      9  C   UNL     1     -95.947 150.709 232.972  1.00  0.00     0.000 C 
BRANCH   9  10
ATOM     10  C   UNL     1     -95.673 152.108 232.383  1.00  0.00     0.006 C 
BRANCH  10  11
ATOM     11  C   UNL     1     -96.920 152.835 231.856  1.00  0.00     0.053 C 
BRANCH  11  12
ATOM     12  C   UNL     1     -96.976 152.844 230.358  1.00  0.00     0.041 C 
ATOM     13  O   UNL     1     -95.997 152.427 229.687  1.00  0.00    -0.550 OA
ATOM     14  O   UNL     1     -98.105 153.325 229.706  1.00  0.00    -0.550 OA
ENDBRANCH  11  12
ENDBRANCH  10  11
ENDBRANCH   9  10
ENDBRANCH   8   9
ENDBRANCH   7   8
ENDBRANCH   6   7
ENDBRANCH   5   6
ENDBRANCH   4   5
ENDBRANCH   3   4
ENDBRANCH   2   3
ENDBRANCH   1   2
BRANCH   1  15
ATOM     15  C   UNL     1     -94.839 148.613 238.441  1.00  0.00     0.000 C 
BRANCH  15  16
ATOM     16  C   UNL     1     -95.715 149.855 238.673  1.00  0.00     0.000 C 
BRANCH  16  17
ATOM     17  C   UNL     1     -97.100 149.512 239.248  1.00  0.00     0.000 C 
BRANCH  17  18
ATOM     18  C   UNL     1     -98.044 150.734 239.278  1.00  0.00    -0.000 C 
BRANCH  18  19
ATOM     19  C   UNL     1     -99.104 150.737 238.159  1.00  0.00    -0.000 C 
BRANCH  19  20
ATOM     20  C   UNL     1     -99.692 149.361 237.806  1.00  0.00    -0.000 C 
BRANCH  20  21
ATOM     21  C   UNL     1     -99.193 148.825 236.453  1.00  0.00    -0.000 C 
BRANCH  21  22
ATOM     22  C   UNL     1     -98.585 149.927 235.567  1.00  0.00    -0.000 C 
BRANCH  22  23
ATOM     23  C   UNL     1     -99.201 150.037 234.160  1.00  0.00    -0.000 C 
BRANCH  23  24
ATOM     24  C   UNL     1     -99.819 151.419 233.885  1.00  0.00    -0.000 C 
BRANCH  24  25
ATOM     25  C   UNL     1     -99.487 152.442 234.983  1.00  0.00    -0.003 C 
ATOM     26  C   UNL     1    -100.736 153.037 235.632  1.00  0.00     0.004 C 
ENDBRANCH  24  25
ENDBRANCH  23  24
ENDBRANCH  22  23
ENDBRANCH  21  22
ENDBRANCH  20  21
ENDBRANCH  19  20
ENDBRANCH  18  19
ENDBRANCH  17  18
ENDBRANCH  16  17
ENDBRANCH  15  16
ENDBRANCH   1  15
TORSDOF 22
ENDMDL
MODEL 7
REMARK VINA RESULT:    -3.314      1.624      3.685
REMARK INTER + INTRA:         -11.446
REMARK INTER:                  -8.182
REMARK INTRA:                  -3.264
REMARK UNBOUND:                -3.871
REMARK SMILES CCCCCCCCCCCCCCCCCCCCCCCC(=O)[O-]
REMARK SMILES IDX 13 1 14 2 15 3 16 4 17 5 18 6 19 7 20 8 21 9 22 10 23 11
REMARK SMILES IDX 24 12 25 13 26 14 12 15 11 16 10 17 9 18 8 19 7 20 6 21 5 22
REMARK SMILES IDX 4 23 3 24 2 25 1 26
REMARK H PARENT
REMARK Flexibility Score: inf
ROOT
ATOM      1  C   UNL     1     -96.461 149.849 234.075  1.00  0.00     0.000 C 
ENDROOT
BRANCH   1   2
ATOM      2  C   UNL     1     -96.069 148.978 232.869  1.00  0.00     0.000 C 
BRANCH   2   3
ATOM      3  C   UNL     1     -95.398 149.784 231.744  1.00  0.00     0.000 C 
BRANCH   3   4
ATOM      4  C   UNL     1     -95.285 151.282 232.080  1.00  0.00     0.000 C 
BRANCH   4   5
ATOM      5  C   UNL     1     -95.899 152.180 230.994  1.00  0.00     0.000 C 
BRANCH   5   6
ATOM      6  C   UNL     1     -97.323 151.744 230.601  1.00  0.00     0.000 C 
BRANCH   6   7
ATOM      7  C   UNL     1     -98.399 152.686 231.166  1.00  0.00     0.000 C 
BRANCH   7   8
ATOM      8  C   UNL     1     -98.830 152.294 232.591  1.00  0.00     0.000 C 
BRANCH   8   9
ATOM      9  C   UNL     1     -98.392 153.318 233.653  1.00  0.00     0.000 C 
BRANCH   9  10
ATOM     10  C   UNL     1     -97.528 154.480 233.123  1.00  0.00     0.006 C 
BRANCH  10  11
ATOM     11  C   UNL     1     -98.149 155.874 233.307  1.00  0.00     0.053 C 
BRANCH  11  12
ATOM     12  C   UNL     1     -99.619 155.878 233.014  1.00  0.00     0.041 C 
ATOM     13  O   UNL     1    -100.028 155.819 231.826  1.00  0.00    -0.550 OA
ATOM     14  O   UNL     1    -100.537 155.962 234.055  1.00  0.00    -0.550 OA
ENDBRANCH  11  12
ENDBRANCH  10  11
ENDBRANCH   9  10
ENDBRANCH   8   9
ENDBRANCH   7   8
ENDBRANCH   6   7
ENDBRANCH   5   6
ENDBRANCH   4   5
ENDBRANCH   3   4
ENDBRANCH   2   3
ENDBRANCH   1   2
BRANCH   1  15
ATOM     15  C   UNL     1     -95.792 149.362 235.379  1.00  0.00     0.000 C 
BRANCH  15  16
ATOM     16  C   UNL     1     -94.747 148.256 235.159  1.00  0.00     0.000 C 
BRANCH  16  17
ATOM     17  C   UNL     1     -93.870 148.004 236.398  1.00  0.00     0.000 C 
BRANCH  17  18
ATOM     18  C   UNL     1     -94.366 148.777 237.638  1.00  0.00    -0.000 C 
BRANCH  18  19
ATOM     19  C   UNL     1     -95.073 147.897 238.687  1.00  0.00    -0.000 C 
BRANCH  19  20
ATOM     20  C   UNL     1     -96.382 148.473 239.254  1.00  0.00    -0.000 C 
BRANCH  20  21
ATOM     21  C   UNL     1     -96.556 149.972 238.954  1.00  0.00    -0.000 C 
BRANCH  21  22
ATOM     22  C   UNL     1     -97.903 150.523 239.456  1.00  0.00    -0.000 C 
BRANCH  22  23
ATOM     23  C   UNL     1     -99.138 149.996 238.701  1.00  0.00    -0.000 C 
BRANCH  23  24
ATOM     24  C   UNL     1     -99.002 150.125 237.173  1.00  0.00    -0.000 C 
BRANCH  24  25
ATOM     25  C   UNL     1     -99.530 151.468 236.645  1.00  0.00    -0.003 C 
ATOM     26  C   UNL     1    -100.827 151.320 235.852  1.00  0.00     0.004 C 
ENDBRANCH  24  25
ENDBRANCH  23  24
ENDBRANCH  22  23
ENDBRANCH  21  22
ENDBRANCH  20  21
ENDBRANCH  19  20
ENDBRANCH  18  19
ENDBRANCH  17  18
ENDBRANCH  16  17
ENDBRANCH  15  16
ENDBRANCH   1  15
TORSDOF 22
ENDMDL
MODEL 8
REMARK VINA RESULT:    -3.277      3.148      7.133
REMARK INTER + INTRA:         -11.362
REMARK INTER:                  -8.467
REMARK INTRA:                  -2.895
REMARK UNBOUND:                -3.871
REMARK SMILES CCCCCCCCCCCCCCCCCCCCCCCC(=O)[O-]
REMARK SMILES IDX 13 1 14 2 15 3 16 4 17 5 18 6 19 7 20 8 21 9 22 10 23 11
REMARK SMILES IDX 24 12 25 13 26 14 12 15 11 16 10 17 9 18 8 19 7 20 6 21 5 22
REMARK SMILES IDX 4 23 3 24 2 25 1 26
REMARK H PARENT
REMARK Flexibility Score: inf
ROOT
ATOM      1  C   UNL     1     -95.460 147.421 235.040  1.00  0.00     0.000 C 
ENDROOT
BRANCH   1   2
ATOM      2  C   UNL     1     -94.018 147.727 235.480  1.00  0.00     0.000 C 
BRANCH   2   3
ATOM      3  C   UNL     1     -93.929 148.223 236.933  1.00  0.00     0.000 C 
BRANCH   3   4
ATOM      4  C   UNL     1     -94.733 147.341 237.905  1.00  0.00     0.000 C 
BRANCH   4   5
ATOM      5  C   UNL     1     -95.368 148.148 239.048  1.00  0.00     0.000 C 
BRANCH   5   6
ATOM      6  C   UNL     1     -95.730 149.585 238.628  1.00  0.00     0.000 C 
BRANCH   6   7
ATOM      7  C   UNL     1     -97.218 149.732 238.269  1.00  0.00     0.000 C 
BRANCH   7   8
ATOM      8  C   UNL     1     -97.958 150.689 239.221  1.00  0.00     0.000 C 
BRANCH   8   9
ATOM      9  C   UNL     1     -99.034 149.983 240.064  1.00  0.00     0.000 C 
BRANCH   9  10
ATOM     10  C   UNL     1     -98.609 149.633 241.505  1.00  0.00     0.006 C 
BRANCH  10  11
ATOM     11  C   UNL     1     -98.835 150.758 242.529  1.00  0.00     0.053 C 
BRANCH  11  12
ATOM     12  C   UNL     1    -100.182 150.665 243.179  1.00  0.00     0.041 C 
ATOM     13  O   UNL     1    -100.359 149.899 244.161  1.00  0.00    -0.550 OA
ATOM     14  O   UNL     1    -101.245 151.414 242.689  1.00  0.00    -0.550 OA
ENDBRANCH  11  12
ENDBRANCH  10  11
ENDBRANCH   9  10
ENDBRANCH   8   9
ENDBRANCH   7   8
ENDBRANCH   6   7
ENDBRANCH   5   6
ENDBRANCH   4   5
ENDBRANCH   3   4
ENDBRANCH   2   3
ENDBRANCH   1   2
BRANCH   1  15
ATOM     15  C   UNL     1     -96.332 148.695 234.996  1.00  0.00     0.000 C 
BRANCH  15  16
ATOM     16  C   UNL     1     -95.669 149.869 234.258  1.00  0.00     0.000 C 
BRANCH  16  17
ATOM     17  C   UNL     1     -95.816 149.778 232.729  1.00  0.00     0.000 C 
BRANCH  17  18
ATOM     18  C   UNL     1     -95.295 151.040 232.011  1.00  0.00    -0.000 C 
BRANCH  18  19
ATOM     19  C   UNL     1     -96.269 151.616 230.964  1.00  0.00    -0.000 C 
BRANCH  19  20
ATOM     20  C   UNL     1     -96.895 152.974 231.325  1.00  0.00    -0.000 C 
BRANCH  20  21
ATOM     21  C   UNL     1     -96.851 153.271 232.835  1.00  0.00    -0.000 C 
BRANCH  21  22
ATOM     22  C   UNL     1     -98.072 154.075 233.316  1.00  0.00    -0.000 C 
BRANCH  22  23
ATOM     23  C   UNL     1     -99.134 153.249 234.066  1.00  0.00    -0.000 C 
BRANCH  23  24
ATOM     24  C   UNL     1     -98.910 151.732 233.936  1.00  0.00    -0.000 C 
BRANCH  24  25
ATOM     25  C   UNL     1     -99.179 150.982 235.250  1.00  0.00    -0.003 C 
ATOM     26  C   UNL     1     -99.894 151.847 236.287  1.00  0.00     0.004 C 
ENDBRANCH  24  25
ENDBRANCH  23  24
ENDBRANCH  22  23
ENDBRANCH  21  22
ENDBRANCH  20  21
ENDBRANCH  19  20
ENDBRANCH  18  19
ENDBRANCH  17  18
ENDBRANCH  16  17
ENDBRANCH  15  16
ENDBRANCH   1  15
TORSDOF 22
ENDMDL
MODEL 9
REMARK VINA RESULT:    -3.274      2.081      5.308
REMARK INTER + INTRA:         -11.356
REMARK INTER:                  -7.276
REMARK INTRA:                  -4.080
REMARK UNBOUND:                -3.871
REMARK SMILES CCCCCCCCCCCCCCCCCCCCCCCC(=O)[O-]
REMARK SMILES IDX 13 1 14 2 15 3 16 4 17 5 18 6 19 7 20 8 21 9 22 10 23 11
REMARK SMILES IDX 24 12 25 13 26 14 12 15 11 16 10 17 9 18 8 19 7 20 6 21 5 22
REMARK SMILES IDX 4 23 3 24 2 25 1 26
REMARK H PARENT
REMARK Flexibility Score: inf
ROOT
ATOM      1  C   UNL     1     -95.545 151.611 232.374  1.00  0.00     0.000 C 
ENDROOT
BRANCH   1   2
ATOM      2  C   UNL     1     -96.498 152.820 232.380  1.00  0.00     0.000 C 
BRANCH   2   3
ATOM      3  C   UNL     1     -97.374 152.896 231.118  1.00  0.00     0.000 C 
BRANCH   3   4
ATOM      4  C   UNL     1     -98.840 152.517 231.396  1.00  0.00     0.000 C 
BRANCH   4   5
ATOM      5  C   UNL     1     -99.124 152.310 232.892  1.00  0.00     0.000 C 
BRANCH   5   6
ATOM      6  C   UNL     1    -100.457 151.581 233.146  1.00  0.00     0.000 C 
BRANCH   6   7
ATOM      7  C   UNL     1    -101.105 151.995 234.477  1.00  0.00     0.000 C 
BRANCH   7   8
ATOM      8  C   UNL     1    -100.523 153.309 235.028  1.00  0.00     0.000 C 
BRANCH   8   9
ATOM      9  C   UNL     1    -101.442 154.520 234.787  1.00  0.00     0.000 C 
BRANCH   9  10
ATOM     10  C   UNL     1    -100.728 155.794 234.293  1.00  0.00     0.006 C 
BRANCH  10  11
ATOM     11  C   UNL     1    -100.357 155.781 232.801  1.00  0.00     0.053 C 
BRANCH  11  12
ATOM     12  C   UNL     1     -98.896 156.034 232.582  1.00  0.00     0.041 C 
ATOM     13  O   UNL     1     -98.085 155.925 233.538  1.00  0.00    -0.550 OA
ATOM     14  O   UNL     1     -98.434 156.405 231.325  1.00  0.00    -0.550 OA
ENDBRANCH  11  12
ENDBRANCH  10  11
ENDBRANCH   9  10
ENDBRANCH   8   9
ENDBRANCH   7   8
ENDBRANCH   6   7
ENDBRANCH   5   6
ENDBRANCH   4   5
ENDBRANCH   3   4
ENDBRANCH   2   3
ENDBRANCH   1   2
BRANCH   1  15
ATOM     15  C   UNL     1     -95.844 150.636 233.533  1.00  0.00     0.000 C 
BRANCH  15  16
ATOM     16  C   UNL     1     -96.661 149.405 233.107  1.00  0.00     0.000 C 
BRANCH  16  17
ATOM     17  C   UNL     1     -97.607 148.902 234.211  1.00  0.00     0.000 C 
BRANCH  17  18
ATOM     18  C   UNL     1     -97.931 149.994 235.253  1.00  0.00    -0.000 C 
BRANCH  18  19
ATOM     19  C   UNL     1     -98.563 149.458 236.552  1.00  0.00    -0.000 C 
BRANCH  19  20
ATOM     20  C   UNL     1     -99.069 150.533 237.528  1.00  0.00    -0.000 C 
BRANCH  20  21
ATOM     21  C   UNL     1     -98.144 150.721 238.744  1.00  0.00    -0.000 C 
BRANCH  21  22
ATOM     22  C   UNL     1     -97.200 149.524 238.960  1.00  0.00    -0.000 C 
BRANCH  22  23
ATOM     23  C   UNL     1     -95.706 149.837 238.758  1.00  0.00    -0.000 C 
BRANCH  23  24
ATOM     24  C   UNL     1     -94.956 148.714 238.020  1.00  0.00    -0.000 C 
BRANCH  24  25
ATOM     25  C   UNL     1     -94.562 149.110 236.588  1.00  0.00    -0.003 C 
ATOM     26  C   UNL     1     -94.235 147.903 235.711  1.00  0.00     0.004 C 
ENDBRANCH  24  25
ENDBRANCH  23  24
ENDBRANCH  22  23
ENDBRANCH  21  22
ENDBRANCH  20  21
ENDBRANCH  19  20
ENDBRANCH  18  19
ENDBRANCH  17  18
ENDBRANCH  16  17
ENDBRANCH  15  16
ENDBRANCH   1  15
TORSDOF 22
ENDMDL
