MODEL 1
REMARK VINA RESULT:    -7.150      0.000      0.000
REMARK INTER + INTRA:          -7.421
REMARK INTER:                  -7.777
REMARK INTRA:                   0.356
REMARK UNBOUND:                 0.356
REMARK SMILES CC1(C)CC[C@@]2(C(=O)[O-])CC[C@@]3(C)C(=CC[C@H]4[C@@]5(C)CC[C@H](O)C(C)(C)[C@H]5CC[C@@]43C)[C@H]2C1
REMARK SMILES IDX 6 1 5 2 10 3 32 4 4 5 11 6 14 7 33 8 2 9 12 10 15 11 1 12
REMARK SMILES IDX 3 13 13 14 30 15 16 16 17 17 29 18 31 19 18 20 28 21 27 22
REMARK SMILES IDX 20 23 19 24 24 25 21 26 22 27 25 28 26 29 7 30 8 31 9 32
REMARK SMILES IDX 23 33
REMARK H PARENT 23 34
REMARK Flexibility Score: inf
ROOT
ATOM      1  C   UNL     1      19.379 -14.716  15.957  1.00  0.00     0.017 C 
ATOM      2  C   UNL     1      19.391 -15.898  14.948  1.00  0.00     0.014 C 
ATOM      3  C   UNL     1      20.710 -14.655  16.743  1.00  0.00     0.014 C 
ATOM      4  C   UNL     1      19.172 -13.366  15.208  1.00  0.00     0.028 C 
ATOM      5  C   UNL     1      20.341 -15.697  13.759  1.00  0.00     0.007 C 
ATOM      6  C   UNL     1      20.690 -13.560  17.821  1.00  0.00     0.013 C 
ATOM      7  C   UNL     1      19.309 -12.158  16.138  1.00  0.00    -0.064 C 
ATOM      8  C   UNL     1      20.106 -13.185  13.985  1.00  0.00     0.015 C 
ATOM      9  C   UNL     1      20.083 -14.376  12.994  1.00  0.00    -0.035 C 
ATOM     10  C   UNL     1      20.324 -12.117  17.298  1.00  0.00    -0.006 C 
ATOM     11  C   UNL     1      18.611 -11.048  15.806  1.00  0.00    -0.027 C 
ATOM     12  C   UNL     1      18.740 -14.432  12.226  1.00  0.00     0.011 C 
ATOM     13  C   UNL     1      21.212 -14.179  11.959  1.00  0.00     0.011 C 
ATOM     14  C   UNL     1      21.644 -11.513  16.716  1.00  0.00     0.017 C 
ATOM     15  C   UNL     1      19.715 -11.195  18.472  1.00  0.00    -0.020 C 
ATOM     16  C   UNL     1      18.599  -9.760  16.593  1.00  0.00     0.032 C 
ATOM     17  C   UNL     1      19.473  -9.747  17.886  1.00  0.00     0.006 C 
ATOM     18  C   UNL     1      20.679 -11.131  19.712  1.00  0.00     0.008 C 
ATOM     19  C   UNL     1      18.350 -11.782  18.966  1.00  0.00     0.012 C 
ATOM     20  C   UNL     1      19.102  -8.595  18.930  1.00  0.00    -0.025 C 
ATOM     21  C   UNL     1      21.192  -9.731  20.075  1.00  0.00     0.005 C 
ATOM     22  C   UNL     1      20.090  -8.642  20.194  1.00  0.00     0.003 C 
ATOM     23  C   UNL     1      17.555  -8.584  19.276  1.00  0.00     0.010 C 
ATOM     24  C   UNL     1      19.377  -7.241  18.185  1.00  0.00     0.012 C 
ATOM     25  C   UNL     1      19.484  -8.476  21.654  1.00  0.00    -0.006 C 
ATOM     26  C   UNL     1      17.121  -8.388  20.734  1.00  0.00     0.033 C 
ATOM     27  C   UNL     1      18.154  -7.682  21.606  1.00  0.00     0.120 C 
ATOM     28  C   UNL     1      19.251  -9.825  22.386  1.00  0.00     0.014 C 
ATOM     29  C   UNL     1      20.474  -7.675  22.551  1.00  0.00     0.014 C 
ENDROOT
BRANCH   1  30
ATOM     30  C   UNL     1      18.230 -14.987  16.926  1.00  0.00     0.048 C 
ATOM     31  O   UNL     1      17.052 -15.094  16.490  1.00  0.00    -0.550 OA
ATOM     32  O   UNL     1      18.447 -15.068  18.297  1.00  0.00    -0.550 OA
ENDBRANCH   1  30
BRANCH  27  33
ATOM     33  O   UNL     1      18.366  -6.372  21.141  1.00  0.00    -0.393 OA
ATOM     34  H   UNL     1      18.965  -6.436  20.352  1.00  0.00     0.210 HD
ENDBRANCH  27  33
TORSDOF 2
ENDMDL
MODEL 2
REMARK VINA RESULT:    -6.580      2.091      3.922
REMARK INTER + INTRA:          -6.801
REMARK INTER:                  -7.134
REMARK INTRA:                   0.332
REMARK UNBOUND:                 0.356
REMARK SMILES CC1(C)CC[C@@]2(C(=O)[O-])CC[C@@]3(C)C(=CC[C@H]4[C@@]5(C)CC[C@H](O)C(C)(C)[C@H]5CC[C@@]43C)[C@H]2C1
REMARK SMILES IDX 6 1 5 2 10 3 32 4 4 5 11 6 14 7 33 8 2 9 12 10 15 11 1 12
REMARK SMILES IDX 3 13 13 14 30 15 16 16 17 17 29 18 31 19 18 20 28 21 27 22
REMARK SMILES IDX 20 23 19 24 24 25 21 26 22 27 25 28 26 29 7 30 8 31 9 32
REMARK SMILES IDX 23 33
REMARK H PARENT 23 34
REMARK Flexibility Score: inf
ROOT
ATOM      1  C   UNL     1      19.490 -15.784  16.103  1.00  0.00     0.017 C 
ATOM      2  C   UNL     1      19.602 -17.195  15.461  1.00  0.00     0.014 C 
ATOM      3  C   UNL     1      18.081 -15.567  16.705  1.00  0.00     0.014 C 
ATOM      4  C   UNL     1      20.553 -15.614  17.229  1.00  0.00     0.028 C 
ATOM      5  C   UNL     1      19.617 -18.346  16.479  1.00  0.00     0.007 C 
ATOM      6  C   UNL     1      17.906 -14.144  17.254  1.00  0.00     0.013 C 
ATOM      7  C   UNL     1      20.381 -14.301  17.996  1.00  0.00    -0.064 C 
ATOM      8  C   UNL     1      20.590 -16.796  18.230  1.00  0.00     0.015 C 
ATOM      9  C   UNL     1      20.716 -18.187  17.557  1.00  0.00    -0.035 C 
ATOM     10  C   UNL     1      18.996 -13.695  18.302  1.00  0.00    -0.006 C 
ATOM     11  C   UNL     1      21.495 -13.762  18.545  1.00  0.00    -0.027 C 
ATOM     12  C   UNL     1      22.125 -18.382  16.949  1.00  0.00     0.011 C 
ATOM     13  C   UNL     1      20.510 -19.275  18.633  1.00  0.00     0.011 C 
ATOM     14  C   UNL     1      18.548 -14.278  19.681  1.00  0.00     0.017 C 
ATOM     15  C   UNL     1      19.147 -12.090  18.355  1.00  0.00    -0.020 C 
ATOM     16  C   UNL     1      21.544 -12.472  19.326  1.00  0.00     0.032 C 
ATOM     17  C   UNL     1      20.182 -11.729  19.494  1.00  0.00     0.006 C 
ATOM     18  C   UNL     1      17.764 -11.392  18.627  1.00  0.00     0.008 C 
ATOM     19  C   UNL     1      19.683 -11.552  16.986  1.00  0.00     0.012 C 
ATOM     20  C   UNL     1      20.309 -10.187  19.896  1.00  0.00    -0.025 C 
ATOM     21  C   UNL     1      17.693 -10.552  19.910  1.00  0.00     0.005 C 
ATOM     22  C   UNL     1      18.854  -9.535  20.090  1.00  0.00     0.003 C 
ATOM     23  C   UNL     1      21.283  -9.400  18.925  1.00  0.00     0.010 C 
ATOM     24  C   UNL     1      21.008 -10.170  21.301  1.00  0.00     0.012 C 
ATOM     25  C   UNL     1      18.567  -8.094  19.483  1.00  0.00    -0.006 C 
ATOM     26  C   UNL     1      20.879  -8.002  18.440  1.00  0.00     0.033 C 
ATOM     27  C   UNL     1      19.883  -7.287  19.348  1.00  0.00     0.120 C 
ATOM     28  C   UNL     1      17.845  -8.133  18.109  1.00  0.00     0.014 C 
ATOM     29  C   UNL     1      17.625  -7.298  20.433  1.00  0.00     0.014 C 
ENDROOT
BRANCH   1  30
ATOM     30  C   UNL     1      19.720 -14.779  14.976  1.00  0.00     0.048 C 
ATOM     31  O   UNL     1      19.121 -14.919  13.877  1.00  0.00    -0.550 OA
ATOM     32  O   UNL     1      20.624 -13.732  15.117  1.00  0.00    -0.550 OA
ENDBRANCH   1  30
BRANCH  27  33
ATOM     33  O   UNL     1      20.460  -7.050  20.608  1.00  0.00    -0.393 OA
ATOM     34  H   UNL     1      19.789  -6.559  21.150  1.00  0.00     0.210 HD
ENDBRANCH  27  33
TORSDOF 2
ENDMDL
MODEL 3
REMARK VINA RESULT:    -6.475      1.583      8.178
REMARK INTER + INTRA:          -6.687
REMARK INTER:                  -6.681
REMARK INTRA:                  -0.006
REMARK UNBOUND:                 0.356
REMARK SMILES CC1(C)CC[C@@]2(C(=O)[O-])CC[C@@]3(C)C(=CC[C@H]4[C@@]5(C)CC[C@H](O)C(C)(C)[C@H]5CC[C@@]43C)[C@H]2C1
REMARK SMILES IDX 6 1 5 2 10 3 32 4 4 5 11 6 14 7 33 8 2 9 12 10 15 11 1 12
REMARK SMILES IDX 3 13 13 14 30 15 16 16 17 17 29 18 31 19 18 20 28 21 27 22
REMARK SMILES IDX 20 23 19 24 24 25 21 26 22 27 25 28 26 29 7 30 8 31 9 32
REMARK SMILES IDX 23 33
REMARK H PARENT 23 34
REMARK Flexibility Score: inf
ROOT
ATOM      1  C   UNL     1      19.302  -8.402  21.233  1.00  0.00     0.017 C 
ATOM      2  C   UNL     1      19.276  -7.248  22.274  1.00  0.00     0.014 C 
ATOM      3  C   UNL     1      20.618  -8.377  20.420  1.00  0.00     0.014 C 
ATOM      4  C   UNL     1      19.176  -9.780  21.949  1.00  0.00     0.028 C 
ATOM      5  C   UNL     1      20.260  -7.433  23.439  1.00  0.00     0.007 C 
ATOM      6  C   UNL     1      20.629  -9.442  19.314  1.00  0.00     0.013 C 
ATOM      7  C   UNL     1      19.353 -10.955  20.983  1.00  0.00    -0.064 C 
ATOM      8  C   UNL     1      20.143  -9.947  23.148  1.00  0.00     0.015 C 
ATOM      9  C   UNL     1      20.082  -8.785  24.172  1.00  0.00    -0.035 C 
ATOM     10  C   UNL     1      20.345 -10.914  19.803  1.00  0.00    -0.006 C 
ATOM     11  C   UNL     1      18.717 -12.107  21.297  1.00  0.00    -0.027 C 
ATOM     12  C   UNL     1      18.754  -8.817  24.967  1.00  0.00     0.011 C 
ATOM     13  C   UNL     1      21.240  -8.954  25.179  1.00  0.00     0.011 C 
ATOM     14  C   UNL     1      21.704 -11.468  20.343  1.00  0.00     0.017 C 
ATOM     15  C   UNL     1      19.758 -11.834  18.616  1.00  0.00    -0.020 C 
ATOM     16  C   UNL     1      18.752 -13.372  20.476  1.00  0.00     0.032 C 
ATOM     17  C   UNL     1      19.599 -13.308  19.167  1.00  0.00     0.006 C 
ATOM     18  C   UNL     1      20.698 -11.817  17.356  1.00  0.00     0.008 C 
ATOM     19  C   UNL     1      18.356 -11.303  18.164  1.00  0.00     0.012 C 
ATOM     20  C   UNL     1      19.263 -14.448  18.099  1.00  0.00    -0.025 C 
ATOM     21  C   UNL     1      21.272 -13.180  16.945  1.00  0.00     0.005 C 
ATOM     22  C   UNL     1      20.222 -14.319  16.818  1.00  0.00     0.003 C 
ATOM     23  C   UNL     1      17.712 -14.526  17.782  1.00  0.00     0.010 C 
ATOM     24  C   UNL     1      19.619 -15.806  18.801  1.00  0.00     0.012 C 
ATOM     25  C   UNL     1      19.595 -14.476  15.365  1.00  0.00    -0.006 C 
ATOM     26  C   UNL     1      17.259 -14.704  16.328  1.00  0.00     0.033 C 
ATOM     27  C   UNL     1      18.307 -15.336  15.417  1.00  0.00     0.120 C 
ATOM     28  C   UNL     1      19.281 -13.120  14.675  1.00  0.00     0.014 C 
ATOM     29  C   UNL     1      20.604 -15.202  14.428  1.00  0.00     0.014 C 
ENDROOT
BRANCH   1  30
ATOM     30  C   UNL     1      18.122  -8.163  20.295  1.00  0.00     0.048 C 
ATOM     31  O   UNL     1      16.976  -8.587  20.604  1.00  0.00    -0.550 OA
ATOM     32  O   UNL     1      18.292  -7.526  19.070  1.00  0.00    -0.550 OA
ENDBRANCH   1  30
BRANCH  27  33
ATOM     33  O   UNL     1      18.592 -16.645  15.842  1.00  0.00    -0.393 OA
ATOM     34  H   UNL     1      19.332 -16.982  15.272  1.00  0.00     0.210 HD
ENDBRANCH  27  33
TORSDOF 2
ENDMDL
MODEL 4
REMARK VINA RESULT:    -5.571      2.072      7.887
REMARK INTER + INTRA:          -5.704
REMARK INTER:                  -5.839
REMARK INTRA:                   0.136
REMARK UNBOUND:                 0.356
REMARK SMILES CC1(C)CC[C@@]2(C(=O)[O-])CC[C@@]3(C)C(=CC[C@H]4[C@@]5(C)CC[C@H](O)C(C)(C)[C@H]5CC[C@@]43C)[C@H]2C1
REMARK SMILES IDX 6 1 5 2 10 3 32 4 4 5 11 6 14 7 33 8 2 9 12 10 15 11 1 12
REMARK SMILES IDX 3 13 13 14 30 15 16 16 17 17 29 18 31 19 18 20 28 21 27 22
REMARK SMILES IDX 20 23 19 24 24 25 21 26 22 27 25 28 26 29 7 30 8 31 9 32
REMARK SMILES IDX 23 33
REMARK H PARENT 23 34
REMARK Flexibility Score: inf
ROOT
ATOM      1  C   UNL     1      19.478  -7.179  20.920  1.00  0.00     0.017 C 
ATOM      2  C   UNL     1      19.559  -5.767  21.566  1.00  0.00     0.014 C 
ATOM      3  C   UNL     1      18.092  -7.404  20.270  1.00  0.00     0.014 C 
ATOM      4  C   UNL     1      20.580  -7.342  19.832  1.00  0.00     0.028 C 
ATOM      5  C   UNL     1      19.602  -4.616  20.549  1.00  0.00     0.007 C 
ATOM      6  C   UNL     1      17.945  -8.828  19.714  1.00  0.00     0.013 C 
ATOM      7  C   UNL     1      20.444  -8.656  19.059  1.00  0.00    -0.064 C 
ATOM      8  C   UNL     1      20.645  -6.159  18.833  1.00  0.00     0.015 C 
ATOM      9  C   UNL     1      20.739  -4.768  19.510  1.00  0.00    -0.035 C 
ATOM     10  C   UNL     1      19.074  -9.270  18.705  1.00  0.00    -0.006 C 
ATOM     11  C   UNL     1      21.579  -9.188  18.549  1.00  0.00    -0.027 C 
ATOM     12  C   UNL     1      22.125  -4.564  20.167  1.00  0.00     0.011 C 
ATOM     13  C   UNL     1      20.564  -3.681  18.428  1.00  0.00     0.011 C 
ATOM     14  C   UNL     1      18.670  -8.690  17.311  1.00  0.00     0.017 C 
ATOM     15  C   UNL     1      19.236 -10.874  18.657  1.00  0.00    -0.020 C 
ATOM     16  C   UNL     1      21.663 -10.477  17.770  1.00  0.00     0.032 C 
ATOM     17  C   UNL     1      20.313 -11.228  17.555  1.00  0.00     0.006 C 
ATOM     18  C   UNL     1      17.869 -11.581  18.337  1.00  0.00     0.008 C 
ATOM     19  C   UNL     1      19.728 -11.409  20.044  1.00  0.00     0.012 C 
ATOM     20  C   UNL     1      20.463 -12.769  17.157  1.00  0.00    -0.025 C 
ATOM     21  C   UNL     1      17.847 -12.420  17.052  1.00  0.00     0.005 C 
ATOM     22  C   UNL     1      19.020 -13.430  16.912  1.00  0.00     0.003 C 
ATOM     23  C   UNL     1      21.408 -13.551  18.161  1.00  0.00     0.010 C 
ATOM     24  C   UNL     1      21.211 -12.781  15.777  1.00  0.00     0.012 C 
ATOM     25  C   UNL     1      18.721 -14.873  17.508  1.00  0.00    -0.006 C 
ATOM     26  C   UNL     1      20.996 -14.951  18.631  1.00  0.00     0.033 C 
ATOM     27  C   UNL     1      20.037 -15.672  17.689  1.00  0.00     0.120 C 
ATOM     28  C   UNL     1      17.951 -14.839  18.857  1.00  0.00     0.014 C 
ATOM     29  C   UNL     1      17.817 -15.675  16.527  1.00  0.00     0.014 C 
ENDROOT
BRANCH   1  30
ATOM     30  C   UNL     1      19.675  -8.183  22.054  1.00  0.00     0.048 C 
ATOM     31  O   UNL     1      20.619  -9.016  21.999  1.00  0.00    -0.550 OA
ATOM     32  O   UNL     1      18.798  -8.235  23.132  1.00  0.00    -0.550 OA
ENDBRANCH   1  30
BRANCH  27  33
ATOM     33  O   UNL     1      20.659 -15.904  16.450  1.00  0.00    -0.393 OA
ATOM     34  H   UNL     1      20.548 -16.869  16.244  1.00  0.00     0.210 HD
ENDBRANCH  27  33
TORSDOF 2
ENDMDL
MODEL 5
REMARK VINA RESULT:    -5.488      1.540      8.059
REMARK INTER + INTRA:          -5.613
REMARK INTER:                  -5.709
REMARK INTRA:                   0.096
REMARK UNBOUND:                 0.356
REMARK SMILES CC1(C)CC[C@@]2(C(=O)[O-])CC[C@@]3(C)C(=CC[C@H]4[C@@]5(C)CC[C@H](O)C(C)(C)[C@H]5CC[C@@]43C)[C@H]2C1
REMARK SMILES IDX 6 1 5 2 10 3 32 4 4 5 11 6 14 7 33 8 2 9 12 10 15 11 1 12
REMARK SMILES IDX 3 13 13 14 30 15 16 16 17 17 29 18 31 19 18 20 28 21 27 22
REMARK SMILES IDX 20 23 19 24 24 25 21 26 22 27 25 28 26 29 7 30 8 31 9 32
REMARK SMILES IDX 23 33
REMARK H PARENT 23 34
REMARK Flexibility Score: inf
ROOT
ATOM      1  C   UNL     1      18.864  -8.146  20.341  1.00  0.00     0.017 C 
ATOM      2  C   UNL     1      18.759  -6.908  21.277  1.00  0.00     0.014 C 
ATOM      3  C   UNL     1      20.106  -8.034  19.425  1.00  0.00     0.014 C 
ATOM      4  C   UNL     1      18.970  -9.453  21.182  1.00  0.00     0.028 C 
ATOM      5  C   UNL     1      19.837  -6.857  22.370  1.00  0.00     0.007 C 
ATOM      6  C   UNL     1      20.179  -9.192  18.418  1.00  0.00     0.013 C 
ATOM      7  C   UNL     1      19.233 -10.684  20.310  1.00  0.00    -0.064 C 
ATOM      8  C   UNL     1      20.032  -9.382  22.308  1.00  0.00     0.015 C 
ATOM      9  C   UNL     1      19.890  -8.143  23.229  1.00  0.00    -0.035 C 
ATOM     10  C   UNL     1      20.127 -10.634  19.054  1.00  0.00    -0.006 C 
ATOM     11  C   UNL     1      18.777 -11.871  20.774  1.00  0.00    -0.027 C 
ATOM     12  C   UNL     1      18.637  -8.263  24.129  1.00  0.00     0.011 C 
ATOM     13  C   UNL     1      21.127  -8.069  24.149  1.00  0.00     0.011 C 
ATOM     14  C   UNL     1      21.581 -10.959  19.528  1.00  0.00     0.017 C 
ATOM     15  C   UNL     1      19.584 -11.730  18.003  1.00  0.00    -0.020 C 
ATOM     16  C   UNL     1      18.921 -13.195  20.065  1.00  0.00     0.032 C 
ATOM     17  C   UNL     1      19.659 -13.152  18.691  1.00  0.00     0.006 C 
ATOM     18  C   UNL     1      20.424 -11.717  16.674  1.00  0.00     0.008 C 
ATOM     19  C   UNL     1      18.097 -11.423  17.623  1.00  0.00     0.012 C 
ATOM     20  C   UNL     1      19.403 -14.423  17.756  1.00  0.00    -0.025 C 
ATOM     21  C   UNL     1      21.142 -13.031  16.338  1.00  0.00     0.005 C 
ATOM     22  C   UNL     1      20.245 -14.299  16.395  1.00  0.00     0.003 C 
ATOM     23  C   UNL     1      17.857 -14.723  17.575  1.00  0.00     0.010 C 
ATOM     24  C   UNL     1      19.982 -15.652  18.542  1.00  0.00     0.012 C 
ATOM     25  C   UNL     1      19.545 -14.672  15.017  1.00  0.00    -0.006 C 
ATOM     26  C   UNL     1      17.331 -15.096  16.183  1.00  0.00     0.033 C 
ATOM     27  C   UNL     1      18.387 -15.677  15.248  1.00  0.00     0.120 C 
ATOM     28  C   UNL     1      19.008 -13.439  14.240  1.00  0.00     0.014 C 
ATOM     29  C   UNL     1      20.573 -15.354  14.068  1.00  0.00     0.014 C 
ENDROOT
BRANCH   1  30
ATOM     30  C   UNL     1      17.600  -8.146  19.485  1.00  0.00     0.048 C 
ATOM     31  O   UNL     1      16.502  -8.511  19.985  1.00  0.00    -0.550 OA
ATOM     32  O   UNL     1      17.641  -7.801  18.139  1.00  0.00    -0.550 OA
ENDBRANCH   1  30
BRANCH  27  33
ATOM     33  O   UNL     1      18.871 -16.893  15.760  1.00  0.00    -0.393 OA
ATOM     34  H   UNL     1      18.081 -17.445  15.999  1.00  0.00     0.210 HD
ENDBRANCH  27  33
TORSDOF 2
ENDMDL
MODEL 6
REMARK VINA RESULT:    -5.261      0.390      0.678
REMARK INTER + INTRA:          -5.367
REMARK INTER:                  -5.533
REMARK INTRA:                   0.167
REMARK UNBOUND:                 0.356
REMARK SMILES CC1(C)CC[C@@]2(C(=O)[O-])CC[C@@]3(C)C(=CC[C@H]4[C@@]5(C)CC[C@H](O)C(C)(C)[C@H]5CC[C@@]43C)[C@H]2C1
REMARK SMILES IDX 6 1 5 2 10 3 32 4 4 5 11 6 14 7 33 8 2 9 12 10 15 11 1 12
REMARK SMILES IDX 3 13 13 14 30 15 16 16 17 17 29 18 31 19 18 20 28 21 27 22
REMARK SMILES IDX 20 23 19 24 24 25 21 26 22 27 25 28 26 29 7 30 8 31 9 32
REMARK SMILES IDX 23 33
REMARK H PARENT 23 34
REMARK Flexibility Score: inf
ROOT
ATOM      1  C   UNL     1      19.735 -14.887  16.217  1.00  0.00     0.017 C 
ATOM      2  C   UNL     1      19.754 -16.109  15.255  1.00  0.00     0.014 C 
ATOM      3  C   UNL     1      21.082 -14.762  16.968  1.00  0.00     0.014 C 
ATOM      4  C   UNL     1      19.476 -13.575  15.420  1.00  0.00     0.028 C 
ATOM      5  C   UNL     1      20.672 -15.932  14.036  1.00  0.00     0.007 C 
ATOM      6  C   UNL     1      21.057 -13.626  18.002  1.00  0.00     0.013 C 
ATOM      7  C   UNL     1      19.603 -12.327  16.298  1.00  0.00    -0.064 C 
ATOM      8  C   UNL     1      20.378 -13.420  14.169  1.00  0.00     0.015 C 
ATOM      9  C   UNL     1      20.363 -14.650  13.226  1.00  0.00    -0.035 C 
ATOM     10  C   UNL     1      20.643 -12.215  17.431  1.00  0.00    -0.006 C 
ATOM     11  C   UNL     1      18.869 -11.249  15.939  1.00  0.00    -0.027 C 
ATOM     12  C   UNL     1      19.006 -14.769  12.493  1.00  0.00     0.011 C 
ATOM     13  C   UNL     1      21.463 -14.466  12.159  1.00  0.00     0.011 C 
ATOM     14  C   UNL     1      21.933 -11.602  16.796  1.00  0.00     0.017 C 
ATOM     15  C   UNL     1      20.036 -11.262  18.582  1.00  0.00    -0.020 C 
ATOM     16  C   UNL     1      18.841  -9.931  16.675  1.00  0.00     0.032 C 
ATOM     17  C   UNL     1      19.743  -9.845  17.945  1.00  0.00     0.006 C 
ATOM     18  C   UNL     1      21.026 -11.125  19.796  1.00  0.00     0.008 C 
ATOM     19  C   UNL     1      18.699 -11.862  19.131  1.00  0.00     0.012 C 
ATOM     20  C   UNL     1      19.366  -8.662  18.951  1.00  0.00    -0.025 C 
ATOM     21  C   UNL     1      21.511  -9.699  20.091  1.00  0.00     0.005 C 
ATOM     22  C   UNL     1      20.384  -8.634  20.193  1.00  0.00     0.003 C 
ATOM     23  C   UNL     1      17.828  -8.676  19.333  1.00  0.00     0.010 C 
ATOM     24  C   UNL     1      19.590  -7.332  18.147  1.00  0.00     0.012 C 
ATOM     25  C   UNL     1      19.807  -8.424  21.659  1.00  0.00    -0.006 C 
ATOM     26  C   UNL     1      17.422  -8.432  20.792  1.00  0.00     0.033 C 
ATOM     27  C   UNL     1      18.456  -7.666  21.611  1.00  0.00     0.120 C 
ATOM     28  C   UNL     1      19.624  -9.749  22.449  1.00  0.00     0.014 C 
ATOM     29  C   UNL     1      20.795  -7.564  22.500  1.00  0.00     0.014 C 
ENDROOT
BRANCH   1  30
ATOM     30  C   UNL     1      18.615 -15.148  17.221  1.00  0.00     0.048 C 
ATOM     31  O   UNL     1      18.897 -15.456  18.411  1.00  0.00    -0.550 OA
ATOM     32  O   UNL     1      17.279 -15.106  16.840  1.00  0.00    -0.550 OA
ENDBRANCH   1  30
BRANCH  27  33
ATOM     33  O   UNL     1      18.623  -6.371  21.090  1.00  0.00    -0.393 OA
ATOM     34  H   UNL     1      19.395  -6.405  20.465  1.00  0.00     0.210 HD
ENDBRANCH  27  33
TORSDOF 2
ENDMDL
