MODEL 1
REMARK VINA RESULT:    -3.090      0.000      0.000
REMARK INTER + INTRA:          -9.926
REMARK INTER:                  -6.703
REMARK INTRA:                  -3.223
REMARK UNBOUND:                -3.223
REMARK SMILES CCCCCCCCCCCCCCCCCCCCCC(=O)[O-]
REMARK SMILES IDX 12 1 11 2 10 3 9 4 8 5 7 6 6 7 5 8 4 9 3 10 2 11 1 12 13 13
REMARK SMILES IDX 14 14 15 15 16 16 17 17 18 18 19 19 20 20 21 21 22 22 23 23
REMARK SMILES IDX 24 24
REMARK H PARENT
REMARK Flexibility Score: inf
ROOT
ATOM      1  C   UNL     1    -114.964  34.649  -7.820  1.00  0.00     0.000 C 
ENDROOT
BRANCH   1   2
ATOM      2  C   UNL     1    -115.194  33.641  -8.961  1.00  0.00     0.000 C 
BRANCH   2   3
ATOM      3  C   UNL     1    -116.655  33.509  -9.430  1.00  0.00     0.000 C 
BRANCH   3   4
ATOM      4  C   UNL     1    -116.869  34.006 -10.869  1.00  0.00    -0.000 C 
BRANCH   4   5
ATOM      5  C   UNL     1    -115.549  34.345 -11.580  1.00  0.00    -0.000 C 
BRANCH   5   6
ATOM      6  C   UNL     1    -115.262  33.420 -12.776  1.00  0.00    -0.000 C 
BRANCH   6   7
ATOM      7  C   UNL     1    -114.731  34.183 -14.003  1.00  0.00    -0.000 C 
BRANCH   7   8
ATOM      8  C   UNL     1    -114.836  35.718 -13.913  1.00  0.00    -0.000 C 
BRANCH   8   9
ATOM      9  C   UNL     1    -113.723  36.496 -14.640  1.00  0.00    -0.000 C 
BRANCH   9  10
ATOM     10  C   UNL     1    -113.507  37.907 -14.064  1.00  0.00    -0.000 C 
BRANCH  10  11
ATOM     11  C   UNL     1    -112.084  38.431 -14.315  1.00  0.00    -0.003 C 
ATOM     12  C   UNL     1    -111.434  39.009 -13.057  1.00  0.00     0.004 C 
ENDBRANCH  10  11
ENDBRANCH   9  10
ENDBRANCH   8   9
ENDBRANCH   7   8
ENDBRANCH   6   7
ENDBRANCH   5   6
ENDBRANCH   4   5
ENDBRANCH   3   4
ENDBRANCH   2   3
ENDBRANCH   1   2
BRANCH   1  13
ATOM     13  C   UNL     1    -116.270  35.223  -7.251  1.00  0.00     0.000 C 
BRANCH  13  14
ATOM     14  C   UNL     1    -116.369  36.733  -7.519  1.00  0.00     0.000 C 
BRANCH  14  15
ATOM     15  C   UNL     1    -115.527  37.174  -8.729  1.00  0.00     0.000 C 
BRANCH  15  16
ATOM     16  C   UNL     1    -116.389  37.578  -9.933  1.00  0.00     0.000 C 
BRANCH  16  17
ATOM     17  C   UNL     1    -115.526  38.200 -11.041  1.00  0.00     0.000 C 
BRANCH  17  18
ATOM     18  C   UNL     1    -114.258  38.877 -10.494  1.00  0.00     0.000 C 
BRANCH  18  19
ATOM     19  C   UNL     1    -114.249  40.396 -10.733  1.00  0.00     0.000 C 
BRANCH  19  20
ATOM     20  C   UNL     1    -114.908  41.181  -9.584  1.00  0.00     0.006 C 
BRANCH  20  21
ATOM     21  C   UNL     1    -114.447  40.761  -8.178  1.00  0.00     0.053 C 
BRANCH  21  22
ATOM     22  C   UNL     1    -115.596  40.614  -7.229  1.00  0.00     0.041 C 
ATOM     23  O   UNL     1    -115.406  40.717  -5.988  1.00  0.00    -0.550 OA
ATOM     24  O   UNL     1    -116.870  40.333  -7.710  1.00  0.00    -0.550 OA
ENDBRANCH  21  22
ENDBRANCH  20  21
ENDBRANCH  19  20
ENDBRANCH  18  19
ENDBRANCH  17  18
ENDBRANCH  16  17
ENDBRANCH  15  16
ENDBRANCH  14  15
ENDBRANCH  13  14
ENDBRANCH   1  13
TORSDOF 20
ENDMDL
MODEL 2
REMARK VINA RESULT:    -3.084      3.147      5.821
REMARK INTER + INTRA:          -9.914
REMARK INTER:                  -6.893
REMARK INTRA:                  -3.021
REMARK UNBOUND:                -3.223
REMARK SMILES CCCCCCCCCCCCCCCCCCCCCC(=O)[O-]
REMARK SMILES IDX 12 1 11 2 10 3 9 4 8 5 7 6 6 7 5 8 4 9 3 10 2 11 1 12 13 13
REMARK SMILES IDX 14 14 15 15 16 16 17 17 18 18 19 19 20 20 21 21 22 22 23 23
REMARK SMILES IDX 24 24
REMARK H PARENT
REMARK Flexibility Score: inf
ROOT
ATOM      1  C   UNL     1    -115.215  34.991  -7.479  1.00  0.00     0.000 C 
ENDROOT
BRANCH   1   2
ATOM      2  C   UNL     1    -116.643  35.482  -7.178  1.00  0.00     0.000 C 
BRANCH   2   3
ATOM      3  C   UNL     1    -116.839  37.007  -7.259  1.00  0.00     0.000 C 
BRANCH   3   4
ATOM      4  C   UNL     1    -116.504  37.580  -8.647  1.00  0.00    -0.000 C 
BRANCH   4   5
ATOM      5  C   UNL     1    -115.430  38.678  -8.589  1.00  0.00    -0.000 C 
BRANCH   5   6
ATOM      6  C   UNL     1    -114.483  38.650  -9.801  1.00  0.00    -0.000 C 
BRANCH   6   7
ATOM      7  C   UNL     1    -114.725  39.819 -10.772  1.00  0.00    -0.000 C 
BRANCH   7   8
ATOM      8  C   UNL     1    -113.575  40.843 -10.861  1.00  0.00    -0.000 C 
BRANCH   8   9
ATOM      9  C   UNL     1    -112.813  40.860 -12.199  1.00  0.00    -0.000 C 
BRANCH   9  10
ATOM     10  C   UNL     1    -113.027  39.580 -13.025  1.00  0.00    -0.000 C 
BRANCH  10  11
ATOM     11  C   UNL     1    -111.814  38.637 -12.971  1.00  0.00    -0.003 C 
ATOM     12  C   UNL     1    -111.385  38.142 -14.352  1.00  0.00     0.004 C 
ENDBRANCH  10  11
ENDBRANCH   9  10
ENDBRANCH   8   9
ENDBRANCH   7   8
ENDBRANCH   6   7
ENDBRANCH   5   6
ENDBRANCH   4   5
ENDBRANCH   3   4
ENDBRANCH   2   3
ENDBRANCH   1   2
BRANCH   1  13
ATOM     13  C   UNL     1    -115.158  33.975  -8.631  1.00  0.00     0.000 C 
BRANCH  13  14
ATOM     14  C   UNL     1    -116.557  33.730  -9.216  1.00  0.00     0.000 C 
BRANCH  14  15
ATOM     15  C   UNL     1    -116.661  34.147 -10.693  1.00  0.00     0.000 C 
BRANCH  15  16
ATOM     16  C   UNL     1    -115.633  35.222 -11.078  1.00  0.00     0.000 C 
BRANCH  16  17
ATOM     17  C   UNL     1    -116.178  36.126 -12.194  1.00  0.00     0.000 C 
BRANCH  17  18
ATOM     18  C   UNL     1    -115.066  36.697 -13.090  1.00  0.00     0.000 C 
BRANCH  18  19
ATOM     19  C   UNL     1    -115.094  36.113 -14.512  1.00  0.00     0.000 C 
BRANCH  19  20
ATOM     20  C   UNL     1    -114.352  34.767 -14.616  1.00  0.00     0.006 C 
BRANCH  20  21
ATOM     21  C   UNL     1    -115.272  33.540 -14.727  1.00  0.00     0.053 C 
BRANCH  21  22
ATOM     22  C   UNL     1    -114.966  32.511 -13.682  1.00  0.00     0.041 C 
ATOM     23  O   UNL     1    -114.071  32.731 -12.823  1.00  0.00    -0.550 OA
ATOM     24  O   UNL     1    -115.645  31.297 -13.674  1.00  0.00    -0.550 OA
ENDBRANCH  21  22
ENDBRANCH  20  21
ENDBRANCH  19  20
ENDBRANCH  18  19
ENDBRANCH  17  18
ENDBRANCH  16  17
ENDBRANCH  15  16
ENDBRANCH  14  15
ENDBRANCH  13  14
ENDBRANCH   1  13
TORSDOF 20
ENDMDL
MODEL 3
REMARK VINA RESULT:    -3.074      2.101      5.336
REMARK INTER + INTRA:          -9.891
REMARK INTER:                  -6.953
REMARK INTRA:                  -2.938
REMARK UNBOUND:                -3.223
REMARK SMILES CCCCCCCCCCCCCCCCCCCCCC(=O)[O-]
REMARK SMILES IDX 12 1 11 2 10 3 9 4 8 5 7 6 6 7 5 8 4 9 3 10 2 11 1 12 13 13
REMARK SMILES IDX 14 14 15 15 16 16 17 17 18 18 19 19 20 20 21 21 22 22 23 23
REMARK SMILES IDX 24 24
REMARK H PARENT
REMARK Flexibility Score: inf
ROOT
ATOM      1  C   UNL     1    -116.617  33.560 -10.654  1.00  0.00     0.000 C 
ENDROOT
BRANCH   1   2
ATOM      2  C   UNL     1    -116.410  33.501  -9.129  1.00  0.00     0.000 C 
BRANCH   2   3
ATOM      3  C   UNL     1    -114.992  33.862  -8.650  1.00  0.00     0.000 C 
BRANCH   3   4
ATOM      4  C   UNL     1    -114.989  34.919  -7.532  1.00  0.00    -0.000 C 
BRANCH   4   5
ATOM      5  C   UNL     1    -116.400  35.426  -7.195  1.00  0.00    -0.000 C 
BRANCH   5   6
ATOM      6  C   UNL     1    -116.622  36.892  -7.608  1.00  0.00    -0.000 C 
BRANCH   6   7
ATOM      7  C   UNL     1    -116.941  37.046  -9.105  1.00  0.00    -0.000 C 
BRANCH   7   8
ATOM      8  C   UNL     1    -115.858  37.765  -9.934  1.00  0.00    -0.000 C 
BRANCH   8   9
ATOM      9  C   UNL     1    -114.736  38.428  -9.114  1.00  0.00    -0.000 C 
BRANCH   9  10
ATOM     10  C   UNL     1    -114.666  39.952  -9.321  1.00  0.00    -0.000 C 
BRANCH  10  11
ATOM     11  C   UNL     1    -114.556  40.719  -7.993  1.00  0.00    -0.003 C 
ATOM     12  C   UNL     1    -115.667  40.359  -7.007  1.00  0.00     0.004 C 
ENDBRANCH  10  11
ENDBRANCH   9  10
ENDBRANCH   8   9
ENDBRANCH   7   8
ENDBRANCH   6   7
ENDBRANCH   5   6
ENDBRANCH   4   5
ENDBRANCH   3   4
ENDBRANCH   2   3
ENDBRANCH   1   2
BRANCH   1  13
ATOM     13  C   UNL     1    -115.520  34.352 -11.381  1.00  0.00     0.000 C 
BRANCH  13  14
ATOM     14  C   UNL     1    -116.087  35.071 -12.614  1.00  0.00     0.000 C 
BRANCH  14  15
ATOM     15  C   UNL     1    -115.063  36.012 -13.272  1.00  0.00     0.000 C 
BRANCH  15  16
ATOM     16  C   UNL     1    -114.726  35.607 -14.714  1.00  0.00     0.000 C 
BRANCH  16  17
ATOM     17  C   UNL     1    -113.299  36.035 -15.085  1.00  0.00     0.000 C 
BRANCH  17  18
ATOM     18  C   UNL     1    -113.069  37.546 -14.912  1.00  0.00     0.000 C 
BRANCH  18  19
ATOM     19  C   UNL     1    -111.672  37.871 -14.357  1.00  0.00     0.000 C 
BRANCH  19  20
ATOM     20  C   UNL     1    -111.727  38.663 -13.036  1.00  0.00     0.006 C 
BRANCH  20  21
ATOM     21  C   UNL     1    -113.094  39.296 -12.731  1.00  0.00     0.053 C 
BRANCH  21  22
ATOM     22  C   UNL     1    -113.010  40.788 -12.614  1.00  0.00     0.041 C 
ATOM     23  O   UNL     1    -113.788  41.518 -13.283  1.00  0.00    -0.550 OA
ATOM     24  O   UNL     1    -112.051  41.373 -11.793  1.00  0.00    -0.550 OA
ENDBRANCH  21  22
ENDBRANCH  20  21
ENDBRANCH  19  20
ENDBRANCH  18  19
ENDBRANCH  17  18
ENDBRANCH  16  17
ENDBRANCH  15  16
ENDBRANCH  14  15
ENDBRANCH  13  14
ENDBRANCH   1  13
TORSDOF 20
ENDMDL
MODEL 4
REMARK VINA RESULT:    -3.017      3.070      5.668
REMARK INTER + INTRA:          -9.769
REMARK INTER:                  -6.673
REMARK INTRA:                  -3.096
REMARK UNBOUND:                -3.223
REMARK SMILES CCCCCCCCCCCCCCCCCCCCCC(=O)[O-]
REMARK SMILES IDX 12 1 11 2 10 3 9 4 8 5 7 6 6 7 5 8 4 9 3 10 2 11 1 12 13 13
REMARK SMILES IDX 14 14 15 15 16 16 17 17 18 18 19 19 20 20 21 21 22 22 23 23
REMARK SMILES IDX 24 24
REMARK H PARENT
REMARK Flexibility Score: inf
ROOT
ATOM      1  C   UNL     1    -115.212  33.823  -8.881  1.00  0.00     0.000 C 
ENDROOT
BRANCH   1   2
ATOM      2  C   UNL     1    -115.148  34.881  -7.764  1.00  0.00     0.000 C 
BRANCH   2   3
ATOM      3  C   UNL     1    -116.514  35.380  -7.259  1.00  0.00     0.000 C 
BRANCH   3   4
ATOM      4  C   UNL     1    -116.714  36.890  -7.467  1.00  0.00    -0.000 C 
BRANCH   4   5
ATOM      5  C   UNL     1    -116.736  37.285  -8.952  1.00  0.00    -0.000 C 
BRANCH   5   6
ATOM      6  C   UNL     1    -116.326  38.750  -9.186  1.00  0.00    -0.000 C 
BRANCH   6   7
ATOM      7  C   UNL     1    -114.869  39.032  -8.781  1.00  0.00    -0.000 C 
BRANCH   7   8
ATOM      8  C   UNL     1    -114.650  40.343  -8.000  1.00  0.00    -0.000 C 
BRANCH   8   9
ATOM      9  C   UNL     1    -114.113  41.522  -8.832  1.00  0.00    -0.000 C 
BRANCH   9  10
ATOM     10  C   UNL     1    -113.664  41.102 -10.243  1.00  0.00    -0.000 C 
BRANCH  10  11
ATOM     11  C   UNL     1    -114.337  41.936 -11.345  1.00  0.00    -0.003 C 
ATOM     12  C   UNL     1    -115.838  41.667 -11.460  1.00  0.00     0.004 C 
ENDBRANCH  10  11
ENDBRANCH   9  10
ENDBRANCH   8   9
ENDBRANCH   7   8
ENDBRANCH   6   7
ENDBRANCH   5   6
ENDBRANCH   4   5
ENDBRANCH   3   4
ENDBRANCH   2   3
ENDBRANCH   1   2
BRANCH   1  13
ATOM     13  C   UNL     1    -116.643  33.543  -9.364  1.00  0.00     0.000 C 
BRANCH  13  14
ATOM     14  C   UNL     1    -116.853  34.063 -10.794  1.00  0.00     0.000 C 
BRANCH  14  15
ATOM     15  C   UNL     1    -115.554  34.594 -11.425  1.00  0.00     0.000 C 
BRANCH  15  16
ATOM     16  C   UNL     1    -115.637  34.694 -12.956  1.00  0.00     0.000 C 
BRANCH  16  17
ATOM     17  C   UNL     1    -115.131  36.059 -13.444  1.00  0.00     0.000 C 
BRANCH  17  18
ATOM     18  C   UNL     1    -115.569  37.215 -12.531  1.00  0.00     0.000 C 
BRANCH  18  19
ATOM     19  C   UNL     1    -114.511  38.327 -12.436  1.00  0.00     0.000 C 
BRANCH  19  20
ATOM     20  C   UNL     1    -113.567  38.354 -13.652  1.00  0.00     0.006 C 
BRANCH  20  21
ATOM     21  C   UNL     1    -112.082  38.544 -13.302  1.00  0.00     0.053 C 
BRANCH  21  22
ATOM     22  C   UNL     1    -111.179  38.030 -14.381  1.00  0.00     0.041 C 
ATOM     23  O   UNL     1    -111.251  36.826 -14.744  1.00  0.00    -0.550 OA
ATOM     24  O   UNL     1    -110.236  38.871 -14.965  1.00  0.00    -0.550 OA
ENDBRANCH  21  22
ENDBRANCH  20  21
ENDBRANCH  19  20
ENDBRANCH  18  19
ENDBRANCH  17  18
ENDBRANCH  16  17
ENDBRANCH  15  16
ENDBRANCH  14  15
ENDBRANCH  13  14
ENDBRANCH   1  13
TORSDOF 20
ENDMDL
MODEL 5
REMARK VINA RESULT:    -3.013      1.789      2.909
REMARK INTER + INTRA:          -9.759
REMARK INTER:                  -6.765
REMARK INTRA:                  -2.994
REMARK UNBOUND:                -3.223
REMARK SMILES CCCCCCCCCCCCCCCCCCCCCC(=O)[O-]
REMARK SMILES IDX 12 1 11 2 10 3 9 4 8 5 7 6 6 7 5 8 4 9 3 10 2 11 1 12 13 13
REMARK SMILES IDX 14 14 15 15 16 16 17 17 18 18 19 19 20 20 21 21 22 22 23 23
REMARK SMILES IDX 24 24
REMARK H PARENT
REMARK Flexibility Score: inf
ROOT
ATOM      1  C   UNL     1    -116.385  33.555  -9.192  1.00  0.00     0.000 C 
ENDROOT
BRANCH   1   2
ATOM      2  C   UNL     1    -116.621  33.871 -10.680  1.00  0.00     0.000 C 
BRANCH   2   3
ATOM      3  C   UNL     1    -115.370  33.774 -11.574  1.00  0.00     0.000 C 
BRANCH   3   4
ATOM      4  C   UNL     1    -115.362  34.814 -12.707  1.00  0.00    -0.000 C 
BRANCH   4   5
ATOM      5  C   UNL     1    -116.146  36.086 -12.347  1.00  0.00    -0.000 C 
BRANCH   5   6
ATOM      6  C   UNL     1    -115.760  37.291 -13.223  1.00  0.00    -0.000 C 
BRANCH   6   7
ATOM      7  C   UNL     1    -114.245  37.378 -13.482  1.00  0.00    -0.000 C 
BRANCH   7   8
ATOM      8  C   UNL     1    -113.830  38.337 -14.615  1.00  0.00    -0.000 C 
BRANCH   8   9
ATOM      9  C   UNL     1    -112.779  39.393 -14.229  1.00  0.00    -0.000 C 
BRANCH   9  10
ATOM     10  C   UNL     1    -111.580  38.795 -13.472  1.00  0.00    -0.000 C 
BRANCH  10  11
ATOM     11  C   UNL     1    -110.552  39.863 -13.063  1.00  0.00    -0.003 C 
ATOM     12  C   UNL     1    -110.965  41.274 -13.481  1.00  0.00     0.004 C 
ENDBRANCH  10  11
ENDBRANCH   9  10
ENDBRANCH   8   9
ENDBRANCH   7   8
ENDBRANCH   6   7
ENDBRANCH   5   6
ENDBRANCH   4   5
ENDBRANCH   3   4
ENDBRANCH   2   3
ENDBRANCH   1   2
BRANCH   1  13
ATOM     13  C   UNL     1    -114.948  33.847  -8.735  1.00  0.00     0.000 C 
BRANCH  13  14
ATOM     14  C   UNL     1    -114.938  34.806  -7.534  1.00  0.00     0.000 C 
BRANCH  14  15
ATOM     15  C   UNL     1    -116.340  35.339  -7.192  1.00  0.00     0.000 C 
BRANCH  15  16
ATOM     16  C   UNL     1    -116.464  36.855  -7.402  1.00  0.00     0.000 C 
BRANCH  16  17
ATOM     17  C   UNL     1    -116.216  37.228  -8.871  1.00  0.00     0.000 C 
BRANCH  17  18
ATOM     18  C   UNL     1    -115.054  38.221  -9.043  1.00  0.00     0.000 C 
BRANCH  18  19
ATOM     19  C   UNL     1    -115.302  39.228 -10.178  1.00  0.00     0.000 C 
BRANCH  19  20
ATOM     20  C   UNL     1    -113.995  39.767 -10.790  1.00  0.00     0.006 C 
BRANCH  20  21
ATOM     21  C   UNL     1    -114.024  41.265 -11.137  1.00  0.00     0.053 C 
BRANCH  21  22
ATOM     22  C   UNL     1    -113.258  42.086 -10.145  1.00  0.00     0.041 C 
ATOM     23  O   UNL     1    -112.253  42.748 -10.517  1.00  0.00    -0.550 OA
ATOM     24  O   UNL     1    -113.634  42.097  -8.806  1.00  0.00    -0.550 OA
ENDBRANCH  21  22
ENDBRANCH  20  21
ENDBRANCH  19  20
ENDBRANCH  18  19
ENDBRANCH  17  18
ENDBRANCH  16  17
ENDBRANCH  15  16
ENDBRANCH  14  15
ENDBRANCH  13  14
ENDBRANCH   1  13
TORSDOF 20
ENDMDL
MODEL 6
REMARK VINA RESULT:    -3.010      1.559      3.973
REMARK INTER + INTRA:          -9.753
REMARK INTER:                  -6.749
REMARK INTRA:                  -3.004
REMARK UNBOUND:                -3.223
REMARK SMILES CCCCCCCCCCCCCCCCCCCCCC(=O)[O-]
REMARK SMILES IDX 12 1 11 2 10 3 9 4 8 5 7 6 6 7 5 8 4 9 3 10 2 11 1 12 13 13
REMARK SMILES IDX 14 14 15 15 16 16 17 17 18 18 19 19 20 20 21 21 22 22 23 23
REMARK SMILES IDX 24 24
REMARK H PARENT
REMARK Flexibility Score: inf
ROOT
ATOM      1  C   UNL     1    -116.701  36.315 -12.086  1.00  0.00     0.000 C 
ENDROOT
BRANCH   1   2
ATOM      2  C   UNL     1    -115.262  36.370 -12.631  1.00  0.00     0.000 C 
BRANCH   2   3
ATOM      3  C   UNL     1    -115.133  36.172 -14.153  1.00  0.00     0.000 C 
BRANCH   3   4
ATOM      4  C   UNL     1    -114.754  34.732 -14.539  1.00  0.00    -0.000 C 
BRANCH   4   5
ATOM      5  C   UNL     1    -113.831  34.673 -15.766  1.00  0.00    -0.000 C 
BRANCH   5   6
ATOM      6  C   UNL     1    -112.981  35.945 -15.935  1.00  0.00    -0.000 C 
BRANCH   6   7
ATOM      7  C   UNL     1    -111.521  35.747 -15.490  1.00  0.00    -0.000 C 
BRANCH   7   8
ATOM      8  C   UNL     1    -110.779  37.039 -15.093  1.00  0.00    -0.000 C 
BRANCH   8   9
ATOM      9  C   UNL     1    -111.683  38.221 -14.698  1.00  0.00    -0.000 C 
BRANCH   9  10
ATOM     10  C   UNL     1    -111.566  38.592 -13.209  1.00  0.00    -0.000 C 
BRANCH  10  11
ATOM     11  C   UNL     1    -112.909  39.037 -12.608  1.00  0.00    -0.003 C 
ATOM     12  C   UNL     1    -113.465  40.300 -13.266  1.00  0.00     0.004 C 
ENDBRANCH  10  11
ENDBRANCH   9  10
ENDBRANCH   8   9
ENDBRANCH   7   8
ENDBRANCH   6   7
ENDBRANCH   5   6
ENDBRANCH   4   5
ENDBRANCH   3   4
ENDBRANCH   2   3
ENDBRANCH   1   2
BRANCH   1  13
ATOM     13  C   UNL     1    -117.085  34.931 -11.540  1.00  0.00     0.000 C 
BRANCH  13  14
ATOM     14  C   UNL     1    -115.862  34.216 -10.947  1.00  0.00     0.000 C 
BRANCH  14  15
ATOM     15  C   UNL     1    -116.114  33.700  -9.519  1.00  0.00     0.000 C 
BRANCH  15  16
ATOM     16  C   UNL     1    -114.895  33.877  -8.602  1.00  0.00     0.000 C 
BRANCH  16  17
ATOM     17  C   UNL     1    -115.134  35.002  -7.584  1.00  0.00     0.000 C 
BRANCH  17  18
ATOM     18  C   UNL     1    -116.542  35.609  -7.691  1.00  0.00     0.000 C 
BRANCH  18  19
ATOM     19  C   UNL     1    -116.515  37.113  -8.012  1.00  0.00     0.000 C 
BRANCH  19  20
ATOM     20  C   UNL     1    -115.188  37.558  -8.656  1.00  0.00     0.006 C 
BRANCH  20  21
ATOM     21  C   UNL     1    -115.310  38.774  -9.589  1.00  0.00     0.053 C 
BRANCH  21  22
ATOM     22  C   UNL     1    -114.600  39.975  -9.045  1.00  0.00     0.041 C 
ATOM     23  O   UNL     1    -113.994  40.757  -9.825  1.00  0.00    -0.550 OA
ATOM     24  O   UNL     1    -114.578  40.215  -7.675  1.00  0.00    -0.550 OA
ENDBRANCH  21  22
ENDBRANCH  20  21
ENDBRANCH  19  20
ENDBRANCH  18  19
ENDBRANCH  17  18
ENDBRANCH  16  17
ENDBRANCH  15  16
ENDBRANCH  14  15
ENDBRANCH  13  14
ENDBRANCH   1  13
TORSDOF 20
ENDMDL
MODEL 7
REMARK VINA RESULT:    -3.007      3.210      5.678
REMARK INTER + INTRA:          -9.746
REMARK INTER:                  -6.723
REMARK INTRA:                  -3.023
REMARK UNBOUND:                -3.223
REMARK SMILES CCCCCCCCCCCCCCCCCCCCCC(=O)[O-]
REMARK SMILES IDX 12 1 11 2 10 3 9 4 8 5 7 6 6 7 5 8 4 9 3 10 2 11 1 12 13 13
REMARK SMILES IDX 14 14 15 15 16 16 17 17 18 18 19 19 20 20 21 21 22 22 23 23
REMARK SMILES IDX 24 24
REMARK H PARENT
REMARK Flexibility Score: inf
ROOT
ATOM      1  C   UNL     1    -115.116  34.933  -7.508  1.00  0.00     0.000 C 
ENDROOT
BRANCH   1   2
ATOM      2  C   UNL     1    -116.499  35.555  -7.241  1.00  0.00     0.000 C 
BRANCH   2   3
ATOM      3  C   UNL     1    -116.621  37.049  -7.592  1.00  0.00     0.000 C 
BRANCH   3   4
ATOM      4  C   UNL     1    -116.925  37.291  -9.080  1.00  0.00    -0.000 C 
BRANCH   4   5
ATOM      5  C   UNL     1    -115.675  37.688  -9.881  1.00  0.00    -0.000 C 
BRANCH   5   6
ATOM      6  C   UNL     1    -114.708  38.576  -9.076  1.00  0.00    -0.000 C 
BRANCH   6   7
ATOM      7  C   UNL     1    -114.576  39.993  -9.661  1.00  0.00    -0.000 C 
BRANCH   7   8
ATOM      8  C   UNL     1    -115.419  40.260 -10.924  1.00  0.00    -0.000 C 
BRANCH   8   9
ATOM      9  C   UNL     1    -114.615  40.448 -12.223  1.00  0.00    -0.000 C 
BRANCH   9  10
ATOM     10  C   UNL     1    -113.097  40.526 -11.980  1.00  0.00    -0.000 C 
BRANCH  10  11
ATOM     11  C   UNL     1    -112.294  40.555 -13.291  1.00  0.00    -0.003 C 
ATOM     12  C   UNL     1    -110.798  40.325 -13.075  1.00  0.00     0.004 C 
ENDBRANCH  10  11
ENDBRANCH   9  10
ENDBRANCH   8   9
ENDBRANCH   7   8
ENDBRANCH   6   7
ENDBRANCH   5   6
ENDBRANCH   4   5
ENDBRANCH   3   4
ENDBRANCH   2   3
ENDBRANCH   1   2
BRANCH   1  13
ATOM     13  C   UNL     1    -115.118  33.943  -8.683  1.00  0.00     0.000 C 
BRANCH  13  14
ATOM     14  C   UNL     1    -116.553  33.562  -9.078  1.00  0.00     0.000 C 
BRANCH  14  15
ATOM     15  C   UNL     1    -116.782  33.619 -10.598  1.00  0.00     0.000 C 
BRANCH  15  16
ATOM     16  C   UNL     1    -115.608  34.263 -11.350  1.00  0.00     0.000 C 
BRANCH  16  17
ATOM     17  C   UNL     1    -116.108  35.085 -12.546  1.00  0.00     0.000 C 
BRANCH  17  18
ATOM     18  C   UNL     1    -114.986  35.431 -13.539  1.00  0.00     0.000 C 
BRANCH  18  19
ATOM     19  C   UNL     1    -114.527  36.895 -13.425  1.00  0.00     0.000 C 
BRANCH  19  20
ATOM     20  C   UNL     1    -113.699  37.353 -14.641  1.00  0.00     0.006 C 
BRANCH  20  21
ATOM     21  C   UNL     1    -113.045  36.210 -15.434  1.00  0.00     0.053 C 
BRANCH  21  22
ATOM     22  C   UNL     1    -111.559  36.173 -15.247  1.00  0.00     0.041 C 
ATOM     23  O   UNL     1    -110.904  35.158 -15.602  1.00  0.00    -0.550 OA
ATOM     24  O   UNL     1    -110.901  37.246 -14.654  1.00  0.00    -0.550 OA
ENDBRANCH  21  22
ENDBRANCH  20  21
ENDBRANCH  19  20
ENDBRANCH  18  19
ENDBRANCH  17  18
ENDBRANCH  16  17
ENDBRANCH  15  16
ENDBRANCH  14  15
ENDBRANCH  13  14
ENDBRANCH   1  13
TORSDOF 20
ENDMDL
MODEL 8
REMARK VINA RESULT:    -2.998      2.238      5.546
REMARK INTER + INTRA:          -9.728
REMARK INTER:                  -6.498
REMARK INTRA:                  -3.230
REMARK UNBOUND:                -3.223
REMARK SMILES CCCCCCCCCCCCCCCCCCCCCC(=O)[O-]
REMARK SMILES IDX 12 1 11 2 10 3 9 4 8 5 7 6 6 7 5 8 4 9 3 10 2 11 1 12 13 13
REMARK SMILES IDX 14 14 15 15 16 16 17 17 18 18 19 19 20 20 21 21 22 22 23 23
REMARK SMILES IDX 24 24
REMARK H PARENT
REMARK Flexibility Score: inf
ROOT
ATOM      1  C   UNL     1    -115.156  33.887  -8.608  1.00  0.00     0.000 C 
ENDROOT
BRANCH   1   2
ATOM      2  C   UNL     1    -115.093  34.982  -7.527  1.00  0.00     0.000 C 
BRANCH   2   3
ATOM      3  C   UNL     1    -116.448  35.616  -7.161  1.00  0.00     0.000 C 
BRANCH   3   4
ATOM      4  C   UNL     1    -116.589  37.061  -7.669  1.00  0.00    -0.000 C 
BRANCH   4   5
ATOM      5  C   UNL     1    -116.954  37.130  -9.161  1.00  0.00    -0.000 C 
BRANCH   5   6
ATOM      6  C   UNL     1    -115.952  37.962  -9.981  1.00  0.00    -0.000 C 
BRANCH   6   7
ATOM      7  C   UNL     1    -114.708  38.365  -9.169  1.00  0.00    -0.000 C 
BRANCH   7   8
ATOM      8  C   UNL     1    -114.456  39.883  -9.070  1.00  0.00    -0.000 C 
BRANCH   8   9
ATOM      9  C   UNL     1    -115.713  40.766  -9.179  1.00  0.00    -0.000 C 
BRANCH   9  10
ATOM     10  C   UNL     1    -116.494  40.860  -7.856  1.00  0.00    -0.000 C 
BRANCH  10  11
ATOM     11  C   UNL     1    -115.567  40.942  -6.632  1.00  0.00    -0.003 C 
ATOM     12  C   UNL     1    -116.165  40.284  -5.389  1.00  0.00     0.004 C 
ENDBRANCH  10  11
ENDBRANCH   9  10
ENDBRANCH   8   9
ENDBRANCH   7   8
ENDBRANCH   6   7
ENDBRANCH   5   6
ENDBRANCH   4   5
ENDBRANCH   3   4
ENDBRANCH   2   3
ENDBRANCH   1   2
BRANCH   1  13
ATOM     13  C   UNL     1    -116.591  33.557  -9.047  1.00  0.00     0.000 C 
BRANCH  13  14
ATOM     14  C   UNL     1    -116.723  33.610 -10.577  1.00  0.00     0.000 C 
BRANCH  14  15
ATOM     15  C   UNL     1    -115.489  34.229 -11.255  1.00  0.00     0.000 C 
BRANCH  15  16
ATOM     16  C   UNL     1    -115.249  33.675 -12.667  1.00  0.00     0.000 C 
BRANCH  16  17
ATOM     17  C   UNL     1    -115.186  34.812 -13.698  1.00  0.00     0.000 C 
BRANCH  17  18
ATOM     18  C   UNL     1    -115.265  36.204 -13.051  1.00  0.00     0.000 C 
BRANCH  18  19
ATOM     19  C   UNL     1    -114.805  37.324 -14.000  1.00  0.00     0.000 C 
BRANCH  19  20
ATOM     20  C   UNL     1    -113.513  38.014 -13.523  1.00  0.00     0.006 C 
BRANCH  20  21
ATOM     21  C   UNL     1    -113.742  39.291 -12.697  1.00  0.00     0.053 C 
BRANCH  21  22
ATOM     22  C   UNL     1    -112.470  40.048 -12.468  1.00  0.00     0.041 C 
ATOM     23  O   UNL     1    -112.499  41.179 -11.914  1.00  0.00    -0.550 OA
ATOM     24  O   UNL     1    -111.255  39.522 -12.895  1.00  0.00    -0.550 OA
ENDBRANCH  21  22
ENDBRANCH  20  21
ENDBRANCH  19  20
ENDBRANCH  18  19
ENDBRANCH  17  18
ENDBRANCH  16  17
ENDBRANCH  15  16
ENDBRANCH  14  15
ENDBRANCH  13  14
ENDBRANCH   1  13
TORSDOF 20
ENDMDL
MODEL 9
REMARK VINA RESULT:    -2.987      3.181      4.917
REMARK INTER + INTRA:          -9.703
REMARK INTER:                  -6.730
REMARK INTRA:                  -2.973
REMARK UNBOUND:                -3.223
REMARK SMILES CCCCCCCCCCCCCCCCCCCCCC(=O)[O-]
REMARK SMILES IDX 12 1 11 2 10 3 9 4 8 5 7 6 6 7 5 8 4 9 3 10 2 11 1 12 13 13
REMARK SMILES IDX 14 14 15 15 16 16 17 17 18 18 19 19 20 20 21 21 22 22 23 23
REMARK SMILES IDX 24 24
REMARK H PARENT
REMARK Flexibility Score: inf
ROOT
ATOM      1  C   UNL     1    -115.241  34.921  -7.490  1.00  0.00     0.000 C 
ENDROOT
BRANCH   1   2
ATOM      2  C   UNL     1    -115.120  33.869  -8.607  1.00  0.00     0.000 C 
BRANCH   2   3
ATOM      3  C   UNL     1    -116.442  33.506  -9.308  1.00  0.00     0.000 C 
BRANCH   3   4
ATOM      4  C   UNL     1    -116.336  33.548 -10.842  1.00  0.00    -0.000 C 
BRANCH   4   5
ATOM      5  C   UNL     1    -115.623  34.810 -11.352  1.00  0.00    -0.000 C 
BRANCH   5   6
ATOM      6  C   UNL     1    -116.557  35.745 -12.141  1.00  0.00    -0.000 C 
BRANCH   6   7
ATOM      7  C   UNL     1    -116.120  35.923 -13.606  1.00  0.00    -0.000 C 
BRANCH   7   8
ATOM      8  C   UNL     1    -114.859  35.135 -14.012  1.00  0.00    -0.000 C 
BRANCH   8   9
ATOM      9  C   UNL     1    -115.096  33.984 -15.007  1.00  0.00    -0.000 C 
BRANCH   9  10
ATOM     10  C   UNL     1    -116.161  32.985 -14.521  1.00  0.00    -0.000 C 
BRANCH  10  11
ATOM     11  C   UNL     1    -115.545  31.671 -14.013  1.00  0.00    -0.003 C 
ATOM     12  C   UNL     1    -116.552  30.793 -13.270  1.00  0.00     0.004 C 
ENDBRANCH  10  11
ENDBRANCH   9  10
ENDBRANCH   8   9
ENDBRANCH   7   8
ENDBRANCH   6   7
ENDBRANCH   5   6
ENDBRANCH   4   5
ENDBRANCH   3   4
ENDBRANCH   2   3
ENDBRANCH   1   2
BRANCH   1  13
ATOM     13  C   UNL     1    -116.621  35.595  -7.445  1.00  0.00     0.000 C 
BRANCH  13  14
ATOM     14  C   UNL     1    -116.489  37.124  -7.530  1.00  0.00     0.000 C 
BRANCH  14  15
ATOM     15  C   UNL     1    -116.139  37.608  -8.947  1.00  0.00     0.000 C 
BRANCH  15  16
ATOM     16  C   UNL     1    -114.676  38.061  -9.073  1.00  0.00     0.000 C 
BRANCH  16  17
ATOM     17  C   UNL     1    -114.572  39.351  -9.900  1.00  0.00     0.000 C 
BRANCH  17  18
ATOM     18  C   UNL     1    -114.943  39.141 -11.377  1.00  0.00     0.000 C 
BRANCH  18  19
ATOM     19  C   UNL     1    -113.790  39.492 -12.332  1.00  0.00     0.000 C 
BRANCH  19  20
ATOM     20  C   UNL     1    -113.330  38.288 -13.176  1.00  0.00     0.006 C 
BRANCH  20  21
ATOM     21  C   UNL     1    -111.847  38.323 -13.579  1.00  0.00     0.053 C 
BRANCH  21  22
ATOM     22  C   UNL     1    -111.589  37.555 -14.840  1.00  0.00     0.041 C 
ATOM     23  O   UNL     1    -110.424  37.158 -15.110  1.00  0.00    -0.550 OA
ATOM     24  O   UNL     1    -112.626  37.306 -15.733  1.00  0.00    -0.550 OA
ENDBRANCH  21  22
ENDBRANCH  20  21
ENDBRANCH  19  20
ENDBRANCH  18  19
ENDBRANCH  17  18
ENDBRANCH  16  17
ENDBRANCH  15  16
ENDBRANCH  14  15
ENDBRANCH  13  14
ENDBRANCH   1  13
TORSDOF 20
ENDMDL
