MODEL 1
REMARK VINA RESULT:    -2.529      0.000      0.000
REMARK INTER + INTRA:         -11.996
REMARK INTER:                  -6.373
REMARK INTRA:                  -5.623
REMARK UNBOUND:                -5.623
REMARK SMILES CCCCCCCCCCCCCCCCCCCCCCCCCCCC(=O)[O-]
REMARK SMILES IDX 15 1 16 2 17 3 18 4 19 5 20 6 21 7 22 8 23 9 24 10 25 11
REMARK SMILES IDX 26 12 27 13 28 14 29 15 30 16 14 17 13 18 12 19 11 20 10 21
REMARK SMILES IDX 9 22 8 23 7 24 6 25 5 26 4 27 3 28 2 29 1 30
REMARK H PARENT
REMARK Flexibility Score: inf
ROOT
ATOM      1  C   UNL     1      20.123  32.280  46.909  1.00  0.00     0.000 C 
ENDROOT
BRANCH   1   2
ATOM      2  C   UNL     1      20.214  30.742  46.837  1.00  0.00     0.000 C 
BRANCH   2   3
ATOM      3  C   UNL     1      21.616  30.176  47.160  1.00  0.00     0.000 C 
BRANCH   3   4
ATOM      4  C   UNL     1      22.747  31.224  47.194  1.00  0.00     0.000 C 
BRANCH   4   5
ATOM      5  C   UNL     1      24.133  30.721  46.734  1.00  0.00     0.000 C 
BRANCH   5   6
ATOM      6  C   UNL     1      25.018  31.778  46.051  1.00  0.00     0.000 C 
BRANCH   6   7
ATOM      7  C   UNL     1      25.393  31.398  44.608  1.00  0.00     0.000 C 
BRANCH   7   8
ATOM      8  C   UNL     1      24.706  30.104  44.141  1.00  0.00     0.000 C 
BRANCH   8   9
ATOM      9  C   UNL     1      23.661  30.357  43.040  1.00  0.00     0.000 C 
BRANCH   9  10
ATOM     10  C   UNL     1      22.239  29.955  43.469  1.00  0.00     0.000 C 
BRANCH  10  11
ATOM     11  C   UNL     1      21.266  31.146  43.466  1.00  0.00     0.000 C 
BRANCH  11  12
ATOM     12  C   UNL     1      21.980  32.501  43.622  1.00  0.00     0.006 C 
BRANCH  12  13
ATOM     13  C   UNL     1      21.564  33.561  42.590  1.00  0.00     0.053 C 
BRANCH  13  14
ATOM     14  C   UNL     1      22.635  33.803  41.573  1.00  0.00     0.041 C 
ATOM     15  O   UNL     1      22.330  34.116  40.392  1.00  0.00    -0.550 OA
ATOM     16  O   UNL     1      23.972  33.720  41.939  1.00  0.00    -0.550 OA
ENDBRANCH  13  14
ENDBRANCH  12  13
ENDBRANCH  11  12
ENDBRANCH  10  11
ENDBRANCH   9  10
ENDBRANCH   8   9
ENDBRANCH   7   8
ENDBRANCH   6   7
ENDBRANCH   5   6
ENDBRANCH   4   5
ENDBRANCH   3   4
ENDBRANCH   2   3
ENDBRANCH   1   2
BRANCH   1  17
ATOM     17  C   UNL     1      18.863  32.833  47.598  1.00  0.00     0.000 C 
BRANCH  17  18
ATOM     18  C   UNL     1      19.065  33.344  49.039  1.00  0.00     0.000 C 
BRANCH  18  19
ATOM     19  C   UNL     1      20.440  33.000  49.649  1.00  0.00     0.000 C 
BRANCH  19  20
ATOM     20  C   UNL     1      20.363  31.852  50.674  1.00  0.00     0.000 C 
BRANCH  20  21
ATOM     21  C   UNL     1      21.677  31.060  50.789  1.00  0.00     0.000 C 
BRANCH  21  22
ATOM     22  C   UNL     1      21.474  29.530  50.801  1.00  0.00    -0.000 C 
BRANCH  22  23
ATOM     23  C   UNL     1      22.796  28.769  50.591  1.00  0.00    -0.000 C 
BRANCH  23  24
ATOM     24  C   UNL     1      22.654  27.590  49.619  1.00  0.00    -0.000 C 
BRANCH  24  25
ATOM     25  C   UNL     1      23.810  27.515  48.604  1.00  0.00    -0.000 C 
BRANCH  25  26
ATOM     26  C   UNL     1      24.064  26.081  48.092  1.00  0.00    -0.000 C 
BRANCH  26  27
ATOM     27  C   UNL     1      23.695  25.866  46.609  1.00  0.00    -0.000 C 
BRANCH  27  28
ATOM     28  C   UNL     1      23.096  27.091  45.896  1.00  0.00    -0.000 C 
BRANCH  28  29
ATOM     29  C   UNL     1      21.670  26.845  45.382  1.00  0.00    -0.003 C 
ATOM     30  C   UNL     1      20.690  26.661  46.537  1.00  0.00     0.004 C 
ENDBRANCH  28  29
ENDBRANCH  27  28
ENDBRANCH  26  27
ENDBRANCH  25  26
ENDBRANCH  24  25
ENDBRANCH  23  24
ENDBRANCH  22  23
ENDBRANCH  21  22
ENDBRANCH  20  21
ENDBRANCH  19  20
ENDBRANCH  18  19
ENDBRANCH  17  18
ENDBRANCH   1  17
TORSDOF 26
ENDMDL
MODEL 2
REMARK VINA RESULT:    -2.498      3.316      6.736
REMARK INTER + INTRA:         -11.917
REMARK INTER:                  -6.395
REMARK INTRA:                  -5.522
REMARK UNBOUND:                -5.623
REMARK SMILES CCCCCCCCCCCCCCCCCCCCCCCCCCCC(=O)[O-]
REMARK SMILES IDX 15 1 16 2 17 3 18 4 19 5 20 6 21 7 22 8 23 9 24 10 25 11
REMARK SMILES IDX 26 12 27 13 28 14 29 15 30 16 14 17 13 18 12 19 11 20 10 21
REMARK SMILES IDX 9 22 8 23 7 24 6 25 5 26 4 27 3 28 2 29 1 30
REMARK H PARENT
REMARK Flexibility Score: inf
ROOT
ATOM      1  C   UNL     1      20.712  31.186  48.274  1.00  0.00     0.000 C 
ENDROOT
BRANCH   1   2
ATOM      2  C   UNL     1      20.374  31.411  49.762  1.00  0.00     0.000 C 
BRANCH   2   3
ATOM      3  C   UNL     1      21.546  31.115  50.727  1.00  0.00     0.000 C 
BRANCH   3   4
ATOM      4  C   UNL     1      22.419  29.905  50.336  1.00  0.00     0.000 C 
BRANCH   4   5
ATOM      5  C   UNL     1      21.825  28.520  50.670  1.00  0.00     0.000 C 
BRANCH   5   6
ATOM      6  C   UNL     1      22.621  27.319  50.131  1.00  0.00     0.000 C 
BRANCH   6   7
ATOM      7  C   UNL     1      23.599  27.709  49.008  1.00  0.00     0.000 C 
BRANCH   7   8
ATOM      8  C   UNL     1      23.746  26.609  47.944  1.00  0.00     0.000 C 
BRANCH   8   9
ATOM      9  C   UNL     1      23.234  27.055  46.563  1.00  0.00     0.000 C 
BRANCH   9  10
ATOM     10  C   UNL     1      21.754  26.699  46.336  1.00  0.00     0.000 C 
BRANCH  10  11
ATOM     11  C   UNL     1      20.823  27.911  46.518  1.00  0.00     0.000 C 
BRANCH  11  12
ATOM     12  C   UNL     1      19.826  27.729  47.676  1.00  0.00     0.006 C 
BRANCH  12  13
ATOM     13  C   UNL     1      19.650  26.274  48.141  1.00  0.00     0.053 C 
BRANCH  13  14
ATOM     14  C   UNL     1      18.349  25.693  47.685  1.00  0.00     0.041 C 
ATOM     15  O   UNL     1      17.344  26.435  47.527  1.00  0.00    -0.550 OA
ATOM     16  O   UNL     1      18.256  24.337  47.398  1.00  0.00    -0.550 OA
ENDBRANCH  13  14
ENDBRANCH  12  13
ENDBRANCH  11  12
ENDBRANCH  10  11
ENDBRANCH   9  10
ENDBRANCH   8   9
ENDBRANCH   7   8
ENDBRANCH   6   7
ENDBRANCH   5   6
ENDBRANCH   4   5
ENDBRANCH   3   4
ENDBRANCH   2   3
ENDBRANCH   1   2
BRANCH   1  17
ATOM     17  C   UNL     1      21.380  32.378  47.564  1.00  0.00     0.000 C 
BRANCH  17  18
ATOM     18  C   UNL     1      22.852  32.169  47.159  1.00  0.00     0.000 C 
BRANCH  18  19
ATOM     19  C   UNL     1      23.224  30.704  46.848  1.00  0.00     0.000 C 
BRANCH  19  20
ATOM     20  C   UNL     1      24.394  30.587  45.852  1.00  0.00     0.000 C 
BRANCH  20  21
ATOM     21  C   UNL     1      25.296  31.833  45.837  1.00  0.00     0.000 C 
BRANCH  21  22
ATOM     22  C   UNL     1      26.026  32.046  44.493  1.00  0.00    -0.000 C 
BRANCH  22  23
ATOM     23  C   UNL     1      26.089  30.754  43.658  1.00  0.00    -0.000 C 
BRANCH  23  24
ATOM     24  C   UNL     1      25.679  30.974  42.195  1.00  0.00    -0.000 C 
BRANCH  24  25
ATOM     25  C   UNL     1      24.772  32.205  42.011  1.00  0.00    -0.000 C 
BRANCH  25  26
ATOM     26  C   UNL     1      23.271  31.864  42.125  1.00  0.00    -0.000 C 
BRANCH  26  27
ATOM     27  C   UNL     1      22.542  32.595  43.273  1.00  0.00    -0.000 C 
BRANCH  27  28
ATOM     28  C   UNL     1      21.286  31.887  43.809  1.00  0.00    -0.000 C 
BRANCH  28  29
ATOM     29  C   UNL     1      21.378  30.356  43.719  1.00  0.00    -0.003 C 
ATOM     30  C   UNL     1      20.026  29.742  43.367  1.00  0.00     0.004 C 
ENDBRANCH  28  29
ENDBRANCH  27  28
ENDBRANCH  26  27
ENDBRANCH  25  26
ENDBRANCH  24  25
ENDBRANCH  23  24
ENDBRANCH  22  23
ENDBRANCH  21  22
ENDBRANCH  20  21
ENDBRANCH  19  20
ENDBRANCH  18  19
ENDBRANCH  17  18
ENDBRANCH   1  17
TORSDOF 26
ENDMDL
MODEL 3
REMARK VINA RESULT:    -2.487      2.743      5.174
REMARK INTER + INTRA:         -11.890
REMARK INTER:                  -5.612
REMARK INTRA:                  -6.278
REMARK UNBOUND:                -5.623
REMARK SMILES CCCCCCCCCCCCCCCCCCCCCCCCCCCC(=O)[O-]
REMARK SMILES IDX 15 1 16 2 17 3 18 4 19 5 20 6 21 7 22 8 23 9 24 10 25 11
REMARK SMILES IDX 26 12 27 13 28 14 29 15 30 16 14 17 13 18 12 19 11 20 10 21
REMARK SMILES IDX 9 22 8 23 7 24 6 25 5 26 4 27 3 28 2 29 1 30
REMARK H PARENT
REMARK Flexibility Score: inf
ROOT
ATOM      1  C   UNL     1      18.334  30.222  47.932  1.00  0.00     0.000 C 
ENDROOT
BRANCH   1   2
ATOM      2  C   UNL     1      18.896  31.657  47.861  1.00  0.00     0.000 C 
BRANCH   2   3
ATOM      3  C   UNL     1      20.399  31.729  47.508  1.00  0.00     0.000 C 
BRANCH   3   4
ATOM      4  C   UNL     1      21.275  32.466  48.543  1.00  0.00     0.000 C 
BRANCH   4   5
ATOM      5  C   UNL     1      20.665  32.598  49.956  1.00  0.00     0.000 C 
BRANCH   5   6
ATOM      6  C   UNL     1      21.222  31.618  51.002  1.00  0.00     0.000 C 
BRANCH   6   7
ATOM      7  C   UNL     1      20.429  30.301  51.066  1.00  0.00     0.000 C 
BRANCH   7   8
ATOM      8  C   UNL     1      21.330  29.062  50.934  1.00  0.00     0.000 C 
BRANCH   8   9
ATOM      9  C   UNL     1      22.669  29.379  50.246  1.00  0.00     0.000 C 
BRANCH   9  10
ATOM     10  C   UNL     1      22.686  28.967  48.764  1.00  0.00     0.000 C 
BRANCH  10  11
ATOM     11  C   UNL     1      23.694  29.785  47.938  1.00  0.00     0.000 C 
BRANCH  11  12
ATOM     12  C   UNL     1      23.724  29.372  46.455  1.00  0.00     0.006 C 
BRANCH  12  13
ATOM     13  C   UNL     1      22.697  28.294  46.074  1.00  0.00     0.053 C 
BRANCH  13  14
ATOM     14  C   UNL     1      22.022  28.597  44.773  1.00  0.00     0.041 C 
ATOM     15  O   UNL     1      22.615  29.276  43.894  1.00  0.00    -0.550 OA
ATOM     16  O   UNL     1      20.752  28.097  44.516  1.00  0.00    -0.550 OA
ENDBRANCH  13  14
ENDBRANCH  12  13
ENDBRANCH  11  12
ENDBRANCH  10  11
ENDBRANCH   9  10
ENDBRANCH   8   9
ENDBRANCH   7   8
ENDBRANCH   6   7
ENDBRANCH   5   6
ENDBRANCH   4   5
ENDBRANCH   3   4
ENDBRANCH   2   3
ENDBRANCH   1   2
BRANCH   1  17
ATOM     17  C   UNL     1      19.334  29.106  47.580  1.00  0.00     0.000 C 
BRANCH  17  18
ATOM     18  C   UNL     1      19.096  27.756  48.285  1.00  0.00     0.000 C 
BRANCH  18  19
ATOM     19  C   UNL     1      19.018  26.546  47.330  1.00  0.00     0.000 C 
BRANCH  19  20
ATOM     20  C   UNL     1      20.224  25.598  47.474  1.00  0.00     0.000 C 
BRANCH  20  21
ATOM     21  C   UNL     1      21.129  25.953  48.667  1.00  0.00     0.000 C 
BRANCH  21  22
ATOM     22  C   UNL     1      20.836  25.117  49.931  1.00  0.00    -0.000 C 
BRANCH  22  23
ATOM     23  C   UNL     1      22.123  24.550  50.560  1.00  0.00    -0.000 C 
BRANCH  23  24
ATOM     24  C   UNL     1      23.157  25.639  50.876  1.00  0.00    -0.000 C 
BRANCH  24  25
ATOM     25  C   UNL     1      24.530  25.357  50.236  1.00  0.00    -0.000 C 
BRANCH  25  26
ATOM     26  C   UNL     1      24.816  26.255  49.014  1.00  0.00    -0.000 C 
BRANCH  26  27
ATOM     27  C   UNL     1      24.650  25.543  47.655  1.00  0.00    -0.000 C 
BRANCH  27  28
ATOM     28  C   UNL     1      24.733  24.007  47.703  1.00  0.00    -0.000 C 
BRANCH  28  29
ATOM     29  C   UNL     1      23.428  23.323  47.270  1.00  0.00    -0.003 C 
ATOM     30  C   UNL     1      23.179  22.049  48.071  1.00  0.00     0.004 C 
ENDBRANCH  28  29
ENDBRANCH  27  28
ENDBRANCH  26  27
ENDBRANCH  25  26
ENDBRANCH  24  25
ENDBRANCH  23  24
ENDBRANCH  22  23
ENDBRANCH  21  22
ENDBRANCH  20  21
ENDBRANCH  19  20
ENDBRANCH  18  19
ENDBRANCH  17  18
ENDBRANCH   1  17
TORSDOF 26
ENDMDL
MODEL 4
REMARK VINA RESULT:    -2.440     11.229     14.624
REMARK INTER + INTRA:         -11.772
REMARK INTER:                  -6.286
REMARK INTRA:                  -5.486
REMARK UNBOUND:                -5.623
REMARK SMILES CCCCCCCCCCCCCCCCCCCCCCCCCCCC(=O)[O-]
REMARK SMILES IDX 15 1 16 2 17 3 18 4 19 5 20 6 21 7 22 8 23 9 24 10 25 11
REMARK SMILES IDX 26 12 27 13 28 14 29 15 30 16 14 17 13 18 12 19 11 20 10 21
REMARK SMILES IDX 9 22 8 23 7 24 6 25 5 26 4 27 3 28 2 29 1 30
REMARK H PARENT
REMARK Flexibility Score: inf
ROOT
ATOM      1  C   UNL     1      16.703  28.198  37.366  1.00  0.00     0.000 C 
ENDROOT
BRANCH   1   2
ATOM      2  C   UNL     1      17.765  29.297  37.158  1.00  0.00     0.000 C 
BRANCH   2   3
ATOM      3  C   UNL     1      17.313  30.441  36.221  1.00  0.00     0.000 C 
BRANCH   3   4
ATOM      4  C   UNL     1      15.834  30.380  35.786  1.00  0.00     0.000 C 
BRANCH   4   5
ATOM      5  C   UNL     1      15.593  30.142  34.280  1.00  0.00     0.000 C 
BRANCH   5   6
ATOM      6  C   UNL     1      16.844  29.754  33.471  1.00  0.00     0.000 C 
BRANCH   6   7
ATOM      7  C   UNL     1      16.595  28.569  32.522  1.00  0.00     0.000 C 
BRANCH   7   8
ATOM      8  C   UNL     1      17.265  28.759  31.152  1.00  0.00     0.000 C 
BRANCH   8   9
ATOM      9  C   UNL     1      17.821  30.182  30.961  1.00  0.00     0.000 C 
BRANCH   9  10
ATOM     10  C   UNL     1      19.357  30.211  30.875  1.00  0.00     0.000 C 
BRANCH  10  11
ATOM     11  C   UNL     1      20.000  30.937  32.070  1.00  0.00     0.000 C 
BRANCH  11  12
ATOM     12  C   UNL     1      19.518  32.393  32.212  1.00  0.00     0.006 C 
BRANCH  12  13
ATOM     13  C   UNL     1      19.264  32.840  33.661  1.00  0.00     0.053 C 
BRANCH  13  14
ATOM     14  C   UNL     1      19.414  34.320  33.824  1.00  0.00     0.041 C 
ATOM     15  O   UNL     1      19.894  34.796  34.887  1.00  0.00    -0.550 OA
ATOM     16  O   UNL     1      19.058  35.173  32.787  1.00  0.00    -0.550 OA
ENDBRANCH  13  14
ENDBRANCH  12  13
ENDBRANCH  11  12
ENDBRANCH  10  11
ENDBRANCH   9  10
ENDBRANCH   8   9
ENDBRANCH   7   8
ENDBRANCH   6   7
ENDBRANCH   5   6
ENDBRANCH   4   5
ENDBRANCH   3   4
ENDBRANCH   2   3
ENDBRANCH   1   2
BRANCH   1  17
ATOM     17  C   UNL     1      16.964  26.881  36.615  1.00  0.00     0.000 C 
BRANCH  17  18
ATOM     18  C   UNL     1      15.937  26.526  35.521  1.00  0.00     0.000 C 
BRANCH  18  19
ATOM     19  C   UNL     1      15.306  25.126  35.672  1.00  0.00     0.000 C 
BRANCH  19  20
ATOM     20  C   UNL     1      14.657  24.624  34.368  1.00  0.00     0.000 C 
BRANCH  20  21
ATOM     21  C   UNL     1      14.423  25.746  33.342  1.00  0.00     0.000 C 
BRANCH  21  22
ATOM     22  C   UNL     1      13.841  25.243  32.004  1.00  0.00    -0.000 C 
BRANCH  22  23
ATOM     23  C   UNL     1      14.881  24.462  31.178  1.00  0.00    -0.000 C 
BRANCH  23  24
ATOM     24  C   UNL     1      16.219  25.203  31.057  1.00  0.00    -0.000 C 
BRANCH  24  25
ATOM     25  C   UNL     1      17.432  24.273  31.251  1.00  0.00    -0.000 C 
BRANCH  25  26
ATOM     26  C   UNL     1      17.974  24.289  32.696  1.00  0.00    -0.000 C 
BRANCH  26  27
ATOM     27  C   UNL     1      18.530  25.657  33.146  1.00  0.00    -0.000 C 
BRANCH  27  28
ATOM     28  C   UNL     1      19.613  26.258  32.233  1.00  0.00    -0.000 C 
BRANCH  28  29
ATOM     29  C   UNL     1      20.508  27.276  32.956  1.00  0.00    -0.003 C 
ATOM     30  C   UNL     1      19.833  27.803  34.220  1.00  0.00     0.004 C 
ENDBRANCH  28  29
ENDBRANCH  27  28
ENDBRANCH  26  27
ENDBRANCH  25  26
ENDBRANCH  24  25
ENDBRANCH  23  24
ENDBRANCH  22  23
ENDBRANCH  21  22
ENDBRANCH  20  21
ENDBRANCH  19  20
ENDBRANCH  18  19
ENDBRANCH  17  18
ENDBRANCH   1  17
TORSDOF 26
ENDMDL
MODEL 5
REMARK VINA RESULT:    -2.374      2.324      5.490
REMARK INTER + INTRA:         -11.606
REMARK INTER:                  -5.933
REMARK INTRA:                  -5.673
REMARK UNBOUND:                -5.623
REMARK SMILES CCCCCCCCCCCCCCCCCCCCCCCCCCCC(=O)[O-]
REMARK SMILES IDX 15 1 16 2 17 3 18 4 19 5 20 6 21 7 22 8 23 9 24 10 25 11
REMARK SMILES IDX 26 12 27 13 28 14 29 15 30 16 14 17 13 18 12 19 11 20 10 21
REMARK SMILES IDX 9 22 8 23 7 24 6 25 5 26 4 27 3 28 2 29 1 30
REMARK H PARENT
REMARK Flexibility Score: inf
ROOT
ATOM      1  C   UNL     1      21.106  27.401  47.488  1.00  0.00     0.000 C 
ENDROOT
BRANCH   1   2
ATOM      2  C   UNL     1      19.924  28.023  48.260  1.00  0.00     0.000 C 
BRANCH   2   3
ATOM      3  C   UNL     1      20.020  27.862  49.795  1.00  0.00     0.000 C 
BRANCH   3   4
ATOM      4  C   UNL     1      21.415  28.140  50.392  1.00  0.00     0.000 C 
BRANCH   4   5
ATOM      5  C   UNL     1      21.567  29.492  51.123  1.00  0.00     0.000 C 
BRANCH   5   6
ATOM      6  C   UNL     1      21.811  30.705  50.208  1.00  0.00     0.000 C 
BRANCH   6   7
ATOM      7  C   UNL     1      20.551  31.567  50.015  1.00  0.00     0.000 C 
BRANCH   7   8
ATOM      8  C   UNL     1      20.831  32.853  49.221  1.00  0.00     0.000 C 
BRANCH   8   9
ATOM      9  C   UNL     1      20.119  32.870  47.857  1.00  0.00     0.000 C 
BRANCH   9  10
ATOM     10  C   UNL     1      19.372  31.557  47.563  1.00  0.00     0.000 C 
BRANCH  10  11
ATOM     11  C   UNL     1      19.635  31.037  46.139  1.00  0.00     0.000 C 
BRANCH  11  12
ATOM     12  C   UNL     1      20.036  32.155  45.160  1.00  0.00     0.006 C 
BRANCH  12  13
ATOM     13  C   UNL     1      19.044  32.374  44.006  1.00  0.00     0.053 C 
BRANCH  13  14
ATOM     14  C   UNL     1      18.180  33.576  44.231  1.00  0.00     0.041 C 
ATOM     15  O   UNL     1      18.148  34.132  45.359  1.00  0.00    -0.550 OA
ATOM     16  O   UNL     1      17.439  34.104  43.181  1.00  0.00    -0.550 OA
ENDBRANCH  13  14
ENDBRANCH  12  13
ENDBRANCH  11  12
ENDBRANCH  10  11
ENDBRANCH   9  10
ENDBRANCH   8   9
ENDBRANCH   7   8
ENDBRANCH   6   7
ENDBRANCH   5   6
ENDBRANCH   4   5
ENDBRANCH   3   4
ENDBRANCH   2   3
ENDBRANCH   1   2
BRANCH   1  17
ATOM     17  C   UNL     1      22.075  28.409  46.845  1.00  0.00     0.000 C 
BRANCH  17  18
ATOM     18  C   UNL     1      23.478  28.479  47.481  1.00  0.00     0.000 C 
BRANCH  18  19
ATOM     19  C   UNL     1      24.124  29.880  47.443  1.00  0.00     0.000 C 
BRANCH  19  20
ATOM     20  C   UNL     1      23.158  30.965  46.931  1.00  0.00     0.000 C 
BRANCH  20  21
ATOM     21  C   UNL     1      23.819  31.940  45.942  1.00  0.00     0.000 C 
BRANCH  21  22
ATOM     22  C   UNL     1      25.334  31.701  45.764  1.00  0.00    -0.000 C 
BRANCH  22  23
ATOM     23  C   UNL     1      25.832  32.150  44.377  1.00  0.00    -0.000 C 
BRANCH  23  24
ATOM     24  C   UNL     1      26.284  30.973  43.502  1.00  0.00    -0.000 C 
BRANCH  24  25
ATOM     25  C   UNL     1      25.243  30.595  42.431  1.00  0.00    -0.000 C 
BRANCH  25  26
ATOM     26  C   UNL     1      24.718  29.153  42.590  1.00  0.00    -0.000 C 
BRANCH  26  27
ATOM     27  C   UNL     1      23.575  29.005  43.615  1.00  0.00    -0.000 C 
BRANCH  27  28
ATOM     28  C   UNL     1      22.354  29.910  43.372  1.00  0.00    -0.000 C 
BRANCH  28  29
ATOM     29  C   UNL     1      21.056  29.118  43.153  1.00  0.00    -0.003 C 
ATOM     30  C   UNL     1      21.267  27.630  43.416  1.00  0.00     0.004 C 
ENDBRANCH  28  29
ENDBRANCH  27  28
ENDBRANCH  26  27
ENDBRANCH  25  26
ENDBRANCH  24  25
ENDBRANCH  23  24
ENDBRANCH  22  23
ENDBRANCH  21  22
ENDBRANCH  20  21
ENDBRANCH  19  20
ENDBRANCH  18  19
ENDBRANCH  17  18
ENDBRANCH   1  17
TORSDOF 26
ENDMDL
MODEL 6
REMARK VINA RESULT:    -2.372      2.021      4.774
REMARK INTER + INTRA:         -11.601
REMARK INTER:                  -5.949
REMARK INTRA:                  -5.652
REMARK UNBOUND:                -5.623
REMARK SMILES CCCCCCCCCCCCCCCCCCCCCCCCCCCC(=O)[O-]
REMARK SMILES IDX 15 1 16 2 17 3 18 4 19 5 20 6 21 7 22 8 23 9 24 10 25 11
REMARK SMILES IDX 26 12 27 13 28 14 29 15 30 16 14 17 13 18 12 19 11 20 10 21
REMARK SMILES IDX 9 22 8 23 7 24 6 25 5 26 4 27 3 28 2 29 1 30
REMARK H PARENT
REMARK Flexibility Score: inf
ROOT
ATOM      1  C   UNL     1      22.399  27.384  44.679  1.00  0.00     0.000 C 
ENDROOT
BRANCH   1   2
ATOM      2  C   UNL     1      22.949  28.259  43.534  1.00  0.00     0.000 C 
BRANCH   2   3
ATOM      3  C   UNL     1      22.068  29.484  43.197  1.00  0.00     0.000 C 
BRANCH   3   4
ATOM      4  C   UNL     1      20.903  29.735  44.177  1.00  0.00     0.000 C 
BRANCH   4   5
ATOM      5  C   UNL     1      20.981  31.054  44.977  1.00  0.00     0.000 C 
BRANCH   5   6
ATOM      6  C   UNL     1      22.339  31.775  44.918  1.00  0.00     0.000 C 
BRANCH   6   7
ATOM      7  C   UNL     1      22.995  31.922  46.301  1.00  0.00     0.000 C 
BRANCH   7   8
ATOM      8  C   UNL     1      24.521  31.737  46.253  1.00  0.00     0.000 C 
BRANCH   8   9
ATOM      9  C   UNL     1      24.966  30.817  45.102  1.00  0.00     0.000 C 
BRANCH   9  10
ATOM     10  C   UNL     1      26.078  31.441  44.242  1.00  0.00     0.000 C 
BRANCH  10  11
ATOM     11  C   UNL     1      25.566  32.598  43.367  1.00  0.00     0.000 C 
BRANCH  11  12
ATOM     12  C   UNL     1      25.640  32.286  41.861  1.00  0.00     0.006 C 
BRANCH  12  13
ATOM     13  C   UNL     1      24.380  31.617  41.288  1.00  0.00     0.053 C 
BRANCH  13  14
ATOM     14  C   UNL     1      24.659  30.235  40.786  1.00  0.00     0.041 C 
ATOM     15  O   UNL     1      23.974  29.750  39.848  1.00  0.00    -0.550 OA
ATOM     16  O   UNL     1      25.703  29.497  41.329  1.00  0.00    -0.550 OA
ENDBRANCH  13  14
ENDBRANCH  12  13
ENDBRANCH  11  12
ENDBRANCH  10  11
ENDBRANCH   9  10
ENDBRANCH   8   9
ENDBRANCH   7   8
ENDBRANCH   6   7
ENDBRANCH   5   6
ENDBRANCH   4   5
ENDBRANCH   3   4
ENDBRANCH   2   3
ENDBRANCH   1   2
BRANCH   1  17
ATOM     17  C   UNL     1      23.200  27.440  45.992  1.00  0.00     0.000 C 
BRANCH  17  18
ATOM     18  C   UNL     1      22.604  28.338  47.094  1.00  0.00     0.000 C 
BRANCH  18  19
ATOM     19  C   UNL     1      23.603  28.734  48.201  1.00  0.00     0.000 C 
BRANCH  19  20
ATOM     20  C   UNL     1      22.970  29.635  49.278  1.00  0.00     0.000 C 
BRANCH  20  21
ATOM     21  C   UNL     1      22.552  28.862  50.540  1.00  0.00     0.000 C 
BRANCH  21  22
ATOM     22  C   UNL     1      21.025  28.823  50.759  1.00  0.00    -0.000 C 
BRANCH  22  23
ATOM     23  C   UNL     1      20.376  27.596  50.090  1.00  0.00    -0.000 C 
BRANCH  23  24
ATOM     24  C   UNL     1      19.033  27.926  49.424  1.00  0.00    -0.000 C 
BRANCH  24  25
ATOM     25  C   UNL     1      19.162  28.143  47.904  1.00  0.00    -0.000 C 
BRANCH  25  26
ATOM     26  C   UNL     1      18.647  29.526  47.452  1.00  0.00    -0.000 C 
BRANCH  26  27
ATOM     27  C   UNL     1      18.795  30.634  48.516  1.00  0.00    -0.000 C 
BRANCH  27  28
ATOM     28  C   UNL     1      19.973  31.599  48.301  1.00  0.00    -0.000 C 
BRANCH  28  29
ATOM     29  C   UNL     1      20.401  32.317  49.590  1.00  0.00    -0.003 C 
ATOM     30  C   UNL     1      20.692  33.793  49.329  1.00  0.00     0.004 C 
ENDBRANCH  28  29
ENDBRANCH  27  28
ENDBRANCH  26  27
ENDBRANCH  25  26
ENDBRANCH  24  25
ENDBRANCH  23  24
ENDBRANCH  22  23
ENDBRANCH  21  22
ENDBRANCH  20  21
ENDBRANCH  19  20
ENDBRANCH  18  19
ENDBRANCH  17  18
ENDBRANCH   1  17
TORSDOF 26
ENDMDL
MODEL 7
REMARK VINA RESULT:    -2.367      3.524      8.008
REMARK INTER + INTRA:         -11.588
REMARK INTER:                  -6.624
REMARK INTRA:                  -4.964
REMARK UNBOUND:                -5.623
REMARK SMILES CCCCCCCCCCCCCCCCCCCCCCCCCCCC(=O)[O-]
REMARK SMILES IDX 15 1 16 2 17 3 18 4 19 5 20 6 21 7 22 8 23 9 24 10 25 11
REMARK SMILES IDX 26 12 27 13 28 14 29 15 30 16 14 17 13 18 12 19 11 20 10 21
REMARK SMILES IDX 9 22 8 23 7 24 6 25 5 26 4 27 3 28 2 29 1 30
REMARK H PARENT
REMARK Flexibility Score: inf
ROOT
ATOM      1  C   UNL     1      22.838  29.363  46.929  1.00  0.00     0.000 C 
ENDROOT
BRANCH   1   2
ATOM      2  C   UNL     1      21.663  30.328  47.188  1.00  0.00     0.000 C 
BRANCH   2   3
ATOM      3  C   UNL     1      22.075  31.657  47.862  1.00  0.00     0.000 C 
BRANCH   3   4
ATOM      4  C   UNL     1      20.909  32.616  48.175  1.00  0.00     0.000 C 
BRANCH   4   5
ATOM      5  C   UNL     1      20.669  32.904  49.673  1.00  0.00     0.000 C 
BRANCH   5   6
ATOM      6  C   UNL     1      21.086  31.774  50.631  1.00  0.00     0.000 C 
BRANCH   6   7
ATOM      7  C   UNL     1      20.055  30.633  50.691  1.00  0.00     0.000 C 
BRANCH   7   8
ATOM      8  C   UNL     1      20.710  29.243  50.654  1.00  0.00     0.000 C 
BRANCH   8   9
ATOM      9  C   UNL     1      22.242  29.311  50.783  1.00  0.00     0.000 C 
BRANCH   9  10
ATOM     10  C   UNL     1      22.927  27.983  50.414  1.00  0.00     0.000 C 
BRANCH  10  11
ATOM     11  C   UNL     1      21.949  26.969  49.796  1.00  0.00     0.000 C 
BRANCH  11  12
ATOM     12  C   UNL     1      22.617  26.057  48.751  1.00  0.00     0.006 C 
BRANCH  12  13
ATOM     13  C   UNL     1      24.108  26.348  48.513  1.00  0.00     0.053 C 
BRANCH  13  14
ATOM     14  C   UNL     1      24.987  25.311  49.140  1.00  0.00     0.041 C 
ATOM     15  O   UNL     1      25.074  24.162  48.634  1.00  0.00    -0.550 OA
ATOM     16  O   UNL     1      25.742  25.628  50.263  1.00  0.00    -0.550 OA
ENDBRANCH  13  14
ENDBRANCH  12  13
ENDBRANCH  11  12
ENDBRANCH  10  11
ENDBRANCH   9  10
ENDBRANCH   8   9
ENDBRANCH   7   8
ENDBRANCH   6   7
ENDBRANCH   5   6
ENDBRANCH   4   5
ENDBRANCH   3   4
ENDBRANCH   2   3
ENDBRANCH   1   2
BRANCH   1  17
ATOM     17  C   UNL     1      22.656  28.412  45.732  1.00  0.00     0.000 C 
BRANCH  17  18
ATOM     18  C   UNL     1      23.725  28.523  44.628  1.00  0.00     0.000 C 
BRANCH  18  19
ATOM     19  C   UNL     1      23.170  28.416  43.192  1.00  0.00     0.000 C 
BRANCH  19  20
ATOM     20  C   UNL     1      24.274  28.500  42.121  1.00  0.00     0.000 C 
BRANCH  20  21
ATOM     21  C   UNL     1      24.204  29.789  41.285  1.00  0.00     0.000 C 
BRANCH  21  22
ATOM     22  C   UNL     1      25.417  30.721  41.490  1.00  0.00    -0.000 C 
BRANCH  22  23
ATOM     23  C   UNL     1      26.279  30.292  42.692  1.00  0.00    -0.000 C 
BRANCH  23  24
ATOM     24  C   UNL     1      26.153  31.250  43.884  1.00  0.00    -0.000 C 
BRANCH  24  25
ATOM     25  C   UNL     1      25.051  32.307  43.681  1.00  0.00    -0.000 C 
BRANCH  25  26
ATOM     26  C   UNL     1      23.847  32.103  44.625  1.00  0.00    -0.000 C 
BRANCH  26  27
ATOM     27  C   UNL     1      22.489  31.992  43.901  1.00  0.00    -0.000 C 
BRANCH  27  28
ATOM     28  C   UNL     1      22.227  33.061  42.827  1.00  0.00    -0.000 C 
BRANCH  28  29
ATOM     29  C   UNL     1      21.669  32.474  41.522  1.00  0.00    -0.003 C 
ATOM     30  C   UNL     1      22.451  32.975  40.311  1.00  0.00     0.004 C 
ENDBRANCH  28  29
ENDBRANCH  27  28
ENDBRANCH  26  27
ENDBRANCH  25  26
ENDBRANCH  24  25
ENDBRANCH  23  24
ENDBRANCH  22  23
ENDBRANCH  21  22
ENDBRANCH  20  21
ENDBRANCH  19  20
ENDBRANCH  18  19
ENDBRANCH  17  18
ENDBRANCH   1  17
TORSDOF 26
ENDMDL
MODEL 8
REMARK VINA RESULT:    -2.346      4.466      7.830
REMARK INTER + INTRA:         -11.535
REMARK INTER:                  -5.773
REMARK INTRA:                  -5.763
REMARK UNBOUND:                -5.623
REMARK SMILES CCCCCCCCCCCCCCCCCCCCCCCCCCCC(=O)[O-]
REMARK SMILES IDX 15 1 16 2 17 3 18 4 19 5 20 6 21 7 22 8 23 9 24 10 25 11
REMARK SMILES IDX 26 12 27 13 28 14 29 15 30 16 14 17 13 18 12 19 11 20 10 21
REMARK SMILES IDX 9 22 8 23 7 24 6 25 5 26 4 27 3 28 2 29 1 30
REMARK H PARENT
REMARK Flexibility Score: inf
ROOT
ATOM      1  C   UNL     1      22.686  28.898  45.653  1.00  0.00     0.000 C 
ENDROOT
BRANCH   1   2
ATOM      2  C   UNL     1      23.131  28.127  44.393  1.00  0.00     0.000 C 
BRANCH   2   3
ATOM      3  C   UNL     1      23.317  26.608  44.616  1.00  0.00     0.000 C 
BRANCH   3   4
ATOM      4  C   UNL     1      23.250  26.155  46.089  1.00  0.00     0.000 C 
BRANCH   4   5
ATOM      5  C   UNL     1      23.808  24.744  46.376  1.00  0.00     0.000 C 
BRANCH   5   6
ATOM      6  C   UNL     1      23.024  23.931  47.421  1.00  0.00     0.000 C 
BRANCH   6   7
ATOM      7  C   UNL     1      22.081  24.803  48.269  1.00  0.00     0.000 C 
BRANCH   7   8
ATOM      8  C   UNL     1      22.082  24.402  49.753  1.00  0.00     0.000 C 
BRANCH   8   9
ATOM      9  C   UNL     1      22.878  25.387  50.628  1.00  0.00     0.000 C 
BRANCH   9  10
ATOM     10  C   UNL     1      24.358  24.990  50.770  1.00  0.00     0.000 C 
BRANCH  10  11
ATOM     11  C   UNL     1      25.287  25.863  49.909  1.00  0.00     0.000 C 
BRANCH  11  12
ATOM     12  C   UNL     1      26.319  25.038  49.119  1.00  0.00     0.006 C 
BRANCH  12  13
ATOM     13  C   UNL     1      26.438  23.572  49.567  1.00  0.00     0.053 C 
BRANCH  13  14
ATOM     14  C   UNL     1      27.668  23.336  50.387  1.00  0.00     0.041 C 
ATOM     15  O   UNL     1      28.130  22.172  50.517  1.00  0.00    -0.550 OA
ATOM     16  O   UNL     1      28.326  24.408  50.977  1.00  0.00    -0.550 OA
ENDBRANCH  13  14
ENDBRANCH  12  13
ENDBRANCH  11  12
ENDBRANCH  10  11
ENDBRANCH   9  10
ENDBRANCH   8   9
ENDBRANCH   7   8
ENDBRANCH   6   7
ENDBRANCH   5   6
ENDBRANCH   4   5
ENDBRANCH   3   4
ENDBRANCH   2   3
ENDBRANCH   1   2
BRANCH   1  17
ATOM     17  C   UNL     1      23.733  29.864  46.236  1.00  0.00     0.000 C 
BRANCH  17  18
ATOM     18  C   UNL     1      23.861  29.855  47.772  1.00  0.00     0.000 C 
BRANCH  18  19
ATOM     19  C   UNL     1      23.389  28.547  48.442  1.00  0.00     0.000 C 
BRANCH  19  20
ATOM     20  C   UNL     1      22.857  28.770  49.870  1.00  0.00     0.000 C 
BRANCH  20  21
ATOM     21  C   UNL     1      22.518  30.242  50.163  1.00  0.00     0.000 C 
BRANCH  21  22
ATOM     22  C   UNL     1      21.122  30.438  50.792  1.00  0.00    -0.000 C 
BRANCH  22  23
ATOM     23  C   UNL     1      20.231  31.366  49.946  1.00  0.00    -0.000 C 
BRANCH  23  24
ATOM     24  C   UNL     1      20.925  31.846  48.663  1.00  0.00    -0.000 C 
BRANCH  24  25
ATOM     25  C   UNL     1      20.319  31.221  47.392  1.00  0.00    -0.000 C 
BRANCH  25  26
ATOM     26  C   UNL     1      19.149  30.262  47.696  1.00  0.00    -0.000 C 
BRANCH  26  27
ATOM     27  C   UNL     1      19.236  28.907  46.964  1.00  0.00    -0.000 C 
BRANCH  27  28
ATOM     28  C   UNL     1      19.977  27.795  47.727  1.00  0.00    -0.000 C 
BRANCH  28  29
ATOM     29  C   UNL     1      19.057  26.999  48.666  1.00  0.00    -0.003 C 
ATOM     30  C   UNL     1      19.458  27.191  50.126  1.00  0.00     0.004 C 
ENDBRANCH  28  29
ENDBRANCH  27  28
ENDBRANCH  26  27
ENDBRANCH  25  26
ENDBRANCH  24  25
ENDBRANCH  23  24
ENDBRANCH  22  23
ENDBRANCH  21  22
ENDBRANCH  20  21
ENDBRANCH  19  20
ENDBRANCH  18  19
ENDBRANCH  17  18
ENDBRANCH   1  17
TORSDOF 26
ENDMDL
MODEL 9
REMARK VINA RESULT:    -2.308      2.313      5.974
REMARK INTER + INTRA:         -11.440
REMARK INTER:                  -6.730
REMARK INTRA:                  -4.710
REMARK UNBOUND:                -5.623
REMARK SMILES CCCCCCCCCCCCCCCCCCCCCCCCCCCC(=O)[O-]
REMARK SMILES IDX 15 1 16 2 17 3 18 4 19 5 20 6 21 7 22 8 23 9 24 10 25 11
REMARK SMILES IDX 26 12 27 13 28 14 29 15 30 16 14 17 13 18 12 19 11 20 10 21
REMARK SMILES IDX 9 22 8 23 7 24 6 25 5 26 4 27 3 28 2 29 1 30
REMARK H PARENT
REMARK Flexibility Score: inf
ROOT
ATOM      1  C   UNL     1      22.359  27.915  45.013  1.00  0.00     0.000 C 
ENDROOT
BRANCH   1   2
ATOM      2  C   UNL     1      22.024  27.967  46.518  1.00  0.00     0.000 C 
BRANCH   2   3
ATOM      3  C   UNL     1      23.264  27.998  47.440  1.00  0.00     0.000 C 
BRANCH   3   4
ATOM      4  C   UNL     1      23.142  28.930  48.664  1.00  0.00     0.000 C 
BRANCH   4   5
ATOM      5  C   UNL     1      22.425  28.325  49.890  1.00  0.00     0.000 C 
BRANCH   5   6
ATOM      6  C   UNL     1      21.573  29.316  50.703  1.00  0.00     0.000 C 
BRANCH   6   7
ATOM      7  C   UNL     1      20.809  30.313  49.815  1.00  0.00     0.000 C 
BRANCH   7   8
ATOM      8  C   UNL     1      21.184  31.774  50.110  1.00  0.00     0.000 C 
BRANCH   8   9
ATOM      9  C   UNL     1      20.973  32.694  48.894  1.00  0.00     0.000 C 
BRANCH   9  10
ATOM     10  C   UNL     1      21.256  31.984  47.559  1.00  0.00     0.000 C 
BRANCH  10  11
ATOM     11  C   UNL     1      22.721  32.132  47.113  1.00  0.00     0.000 C 
BRANCH  11  12
ATOM     12  C   UNL     1      22.999  31.474  45.749  1.00  0.00     0.006 C 
BRANCH  12  13
ATOM     13  C   UNL     1      24.482  31.177  45.477  1.00  0.00     0.053 C 
BRANCH  13  14
ATOM     14  C   UNL     1      25.056  32.096  44.444  1.00  0.00     0.041 C 
ATOM     15  O   UNL     1      24.299  32.694  43.635  1.00  0.00    -0.550 OA
ATOM     16  O   UNL     1      26.426  32.322  44.400  1.00  0.00    -0.550 OA
ENDBRANCH  13  14
ENDBRANCH  12  13
ENDBRANCH  11  12
ENDBRANCH  10  11
ENDBRANCH   9  10
ENDBRANCH   8   9
ENDBRANCH   7   8
ENDBRANCH   6   7
ENDBRANCH   5   6
ENDBRANCH   4   5
ENDBRANCH   3   4
ENDBRANCH   2   3
ENDBRANCH   1   2
BRANCH   1  17
ATOM     17  C   UNL     1      23.366  26.826  44.602  1.00  0.00     0.000 C 
BRANCH  17  18
ATOM     18  C   UNL     1      22.851  25.376  44.697  1.00  0.00     0.000 C 
BRANCH  18  19
ATOM     19  C   UNL     1      23.911  24.354  45.158  1.00  0.00     0.000 C 
BRANCH  19  20
ATOM     20  C   UNL     1      24.216  24.455  46.665  1.00  0.00     0.000 C 
BRANCH  20  21
ATOM     21  C   UNL     1      24.123  23.100  47.389  1.00  0.00     0.000 C 
BRANCH  21  22
ATOM     22  C   UNL     1      23.573  23.209  48.827  1.00  0.00    -0.000 C 
BRANCH  22  23
ATOM     23  C   UNL     1      23.264  24.666  49.220  1.00  0.00    -0.000 C 
BRANCH  23  24
ATOM     24  C   UNL     1      23.398  24.913  50.729  1.00  0.00    -0.000 C 
BRANCH  24  25
ATOM     25  C   UNL     1      24.647  25.741  51.086  1.00  0.00    -0.000 C 
BRANCH  25  26
ATOM     26  C   UNL     1      25.430  26.209  49.841  1.00  0.00    -0.000 C 
BRANCH  26  27
ATOM     27  C   UNL     1      26.906  25.760  49.816  1.00  0.00    -0.000 C 
BRANCH  27  28
ATOM     28  C   UNL     1      27.166  24.395  49.156  1.00  0.00    -0.000 C 
BRANCH  28  29
ATOM     29  C   UNL     1      28.240  24.456  48.060  1.00  0.00    -0.003 C 
ATOM     30  C   UNL     1      27.783  23.729  46.798  1.00  0.00     0.004 C 
ENDBRANCH  28  29
ENDBRANCH  27  28
ENDBRANCH  26  27
ENDBRANCH  25  26
ENDBRANCH  24  25
ENDBRANCH  23  24
ENDBRANCH  22  23
ENDBRANCH  21  22
ENDBRANCH  20  21
ENDBRANCH  19  20
ENDBRANCH  18  19
ENDBRANCH  17  18
ENDBRANCH   1  17
TORSDOF 26
ENDMDL
