MODEL 1
REMARK VINA RESULT:    -1.063      0.000      0.000
REMARK INTER + INTRA:          -1.522
REMARK INTER:                  -1.809
REMARK INTRA:                   0.288
REMARK UNBOUND:                 0.288
REMARK SMILES CCCCCCCCCCCCCC(=O)[O-]
REMARK SMILES IDX 8 1 9 2 10 3 11 4 12 5 13 6 14 7 15 8 16 9 7 10 6 11 5 12
REMARK SMILES IDX 4 13 3 14 2 15 1 16
REMARK H PARENT
REMARK Flexibility Score: inf
ROOT
ATOM      1  C   UNL     1      -3.312   5.180   6.744  1.00  0.00     0.000 C 
ENDROOT
BRANCH   1   2
ATOM      2  C   UNL     1      -2.898   6.350   7.650  1.00  0.00     0.000 C 
BRANCH   2   3
ATOM      3  C   UNL     1      -2.707   5.927   9.115  1.00  0.00     0.000 C 
BRANCH   3   4
ATOM      4  C   UNL     1      -2.921   7.117  10.062  1.00  0.00     0.000 C 
BRANCH   4   5
ATOM      5  C   UNL     1      -1.712   8.063  10.108  1.00  0.00     0.006 C 
BRANCH   5   6
ATOM      6  C   UNL     1      -0.386   7.342   9.832  1.00  0.00     0.053 C 
BRANCH   6   7
ATOM      7  C   UNL     1       0.767   8.274  10.028  1.00  0.00     0.041 C 
ATOM      8  O   UNL     1       0.577   9.519  10.062  1.00  0.00    -0.550 OA
ATOM      9  O   UNL     1       2.059   7.774  10.121  1.00  0.00    -0.550 OA
ENDBRANCH   6   7
ENDBRANCH   5   6
ENDBRANCH   4   5
ENDBRANCH   3   4
ENDBRANCH   2   3
ENDBRANCH   1   2
BRANCH   1  10
ATOM     10  C   UNL     1      -4.256   4.192   7.445  1.00  0.00     0.000 C 
BRANCH  10  11
ATOM     11  C   UNL     1      -3.748   2.752   7.303  1.00  0.00    -0.000 C 
BRANCH  11  12
ATOM     12  C   UNL     1      -3.709   2.046   8.667  1.00  0.00    -0.000 C 
BRANCH  12  13
ATOM     13  C   UNL     1      -4.615   2.719   9.709  1.00  0.00    -0.000 C 
BRANCH  13  14
ATOM     14  C   UNL     1      -5.942   3.212   9.110  1.00  0.00    -0.000 C 
BRANCH  14  15
ATOM     15  C   UNL     1      -6.676   4.134  10.090  1.00  0.00    -0.003 C 
ATOM     16  C   UNL     1      -8.170   3.825  10.125  1.00  0.00     0.004 C 
ENDBRANCH  14  15
ENDBRANCH  13  14
ENDBRANCH  12  13
ENDBRANCH  11  12
ENDBRANCH  10  11
ENDBRANCH   1  10
TORSDOF 12
ENDMDL
MODEL 2
REMARK VINA RESULT:    -0.384      3.466      7.018
REMARK INTER + INTRA:          -0.366
REMARK INTER:                  -0.688
REMARK INTRA:                   0.322
REMARK UNBOUND:                 0.288
REMARK SMILES CCCCCCCCCCCCCC(=O)[O-]
REMARK SMILES IDX 8 1 9 2 10 3 11 4 12 5 13 6 14 7 15 8 16 9 7 10 6 11 5 12
REMARK SMILES IDX 4 13 3 14 2 15 1 16
REMARK H PARENT
REMARK Flexibility Score: inf
ROOT
ATOM      1  C   UNL     1      -2.264   6.606   7.509  1.00  0.00     0.000 C 
ENDROOT
BRANCH   1   2
ATOM      2  C   UNL     1      -3.490   6.200   6.675  1.00  0.00     0.000 C 
BRANCH   2   3
ATOM      3  C   UNL     1      -4.433   5.251   7.431  1.00  0.00     0.000 C 
BRANCH   3   4
ATOM      4  C   UNL     1      -3.739   3.913   7.729  1.00  0.00     0.000 C 
BRANCH   4   5
ATOM      5  C   UNL     1      -4.359   3.178   8.927  1.00  0.00     0.006 C 
BRANCH   5   6
ATOM      6  C   UNL     1      -5.860   2.914   8.748  1.00  0.00     0.053 C 
BRANCH   6   7
ATOM      7  C   UNL     1      -6.658   3.818   9.633  1.00  0.00     0.041 C 
ATOM      8  O   UNL     1      -6.134   4.855  10.117  1.00  0.00    -0.550 OA
ATOM      9  O   UNL     1      -7.966   3.488   9.965  1.00  0.00    -0.550 OA
ENDBRANCH   6   7
ENDBRANCH   5   6
ENDBRANCH   4   5
ENDBRANCH   3   4
ENDBRANCH   2   3
ENDBRANCH   1   2
BRANCH   1  10
ATOM     10  C   UNL     1      -2.246   5.946   8.896  1.00  0.00     0.000 C 
BRANCH  10  11
ATOM     11  C   UNL     1      -2.190   7.003  10.006  1.00  0.00    -0.000 C 
BRANCH  11  12
ATOM     12  C   UNL     1      -1.923   8.399   9.423  1.00  0.00    -0.000 C 
BRANCH  12  13
ATOM     13  C   UNL     1      -0.465   8.849   9.609  1.00  0.00    -0.000 C 
BRANCH  13  14
ATOM     14  C   UNL     1       0.443   7.719  10.118  1.00  0.00    -0.000 C 
BRANCH  14  15
ATOM     15  C   UNL     1       1.921   8.063   9.898  1.00  0.00    -0.003 C 
ATOM     16  C   UNL     1       2.791   6.811   9.943  1.00  0.00     0.004 C 
ENDBRANCH  14  15
ENDBRANCH  13  14
ENDBRANCH  12  13
ENDBRANCH  11  12
ENDBRANCH  10  11
ENDBRANCH   1  10
TORSDOF 12
ENDMDL
MODEL 3
REMARK VINA RESULT:    -0.267      3.374      6.756
REMARK INTER + INTRA:          -0.166
REMARK INTER:                   0.371
REMARK INTRA:                  -0.537
REMARK UNBOUND:                 0.288
REMARK SMILES CCCCCCCCCCCCCC(=O)[O-]
REMARK SMILES IDX 8 1 9 2 10 3 11 4 12 5 13 6 14 7 15 8 16 9 7 10 6 11 5 12
REMARK SMILES IDX 4 13 3 14 2 15 1 16
REMARK H PARENT
REMARK Flexibility Score: inf
ROOT
ATOM      1  C   UNL     1      -3.187   5.063   6.687  1.00  0.00     0.000 C 
ENDROOT
BRANCH   1   2
ATOM      2  C   UNL     1      -4.523   4.381   7.020  1.00  0.00     0.000 C 
BRANCH   2   3
ATOM      3  C   UNL     1      -4.348   2.922   7.468  1.00  0.00     0.000 C 
BRANCH   3   4
ATOM      4  C   UNL     1      -3.757   2.851   8.884  1.00  0.00     0.000 C 
BRANCH   4   5
ATOM      5  C   UNL     1      -4.830   2.933   9.980  1.00  0.00     0.006 C 
BRANCH   5   6
ATOM      6  C   UNL     1      -6.256   2.939   9.412  1.00  0.00     0.053 C 
BRANCH   6   7
ATOM      7  C   UNL     1      -7.001   4.148   9.882  1.00  0.00     0.041 C 
ATOM      8  O   UNL     1      -6.384   5.221  10.114  1.00  0.00    -0.550 OA
ATOM      9  O   UNL     1      -8.368   4.077  10.112  1.00  0.00    -0.550 OA
ENDBRANCH   6   7
ENDBRANCH   5   6
ENDBRANCH   4   5
ENDBRANCH   3   4
ENDBRANCH   2   3
ENDBRANCH   1   2
BRANCH   1  10
ATOM     10  C   UNL     1      -2.911   6.289   7.570  1.00  0.00     0.000 C 
BRANCH  10  11
ATOM     11  C   UNL     1      -3.555   6.127   8.952  1.00  0.00    -0.000 C 
BRANCH  11  12
ATOM     12  C   UNL     1      -2.651   6.704  10.052  1.00  0.00    -0.000 C 
BRANCH  12  13
ATOM     13  C   UNL     1      -1.659   7.748   9.516  1.00  0.00    -0.000 C 
BRANCH  13  14
ATOM     14  C   UNL     1      -0.211   7.462   9.941  1.00  0.00    -0.000 C 
BRANCH  14  15
ATOM     15  C   UNL     1       0.580   8.765  10.104  1.00  0.00    -0.003 C 
ATOM     16  C   UNL     1       2.083   8.500  10.121  1.00  0.00     0.004 C 
ENDBRANCH  14  15
ENDBRANCH  13  14
ENDBRANCH  12  13
ENDBRANCH  11  12
ENDBRANCH  10  11
ENDBRANCH   1  10
TORSDOF 12
ENDMDL
MODEL 4
REMARK VINA RESULT:     0.187      2.682      5.957
REMARK INTER + INTRA:           0.606
REMARK INTER:                  -0.395
REMARK INTRA:                   1.001
REMARK UNBOUND:                 0.288
REMARK SMILES CCCCCCCCCCCCCC(=O)[O-]
REMARK SMILES IDX 8 1 9 2 10 3 11 4 12 5 13 6 14 7 15 8 16 9 7 10 6 11 5 12
REMARK SMILES IDX 4 13 3 14 2 15 1 16
REMARK H PARENT
REMARK Flexibility Score: inf
ROOT
ATOM      1  C   UNL     1      -5.454   4.871   8.820  1.00  0.00     0.000 C 
ENDROOT
BRANCH   1   2
ATOM      2  C   UNL     1      -5.647   3.354   8.977  1.00  0.00     0.000 C 
BRANCH   2   3
ATOM      3  C   UNL     1      -4.323   2.609   9.203  1.00  0.00     0.000 C 
BRANCH   3   4
ATOM      4  C   UNL     1      -3.836   1.948   7.905  1.00  0.00     0.000 C 
BRANCH   4   5
ATOM      5  C   UNL     1      -3.738   2.941   6.736  1.00  0.00     0.006 C 
BRANCH   5   6
ATOM      6  C   UNL     1      -3.334   4.350   7.189  1.00  0.00     0.053 C 
BRANCH   6   7
ATOM      7  C   UNL     1      -3.020   5.209   6.005  1.00  0.00     0.041 C 
ATOM      8  O   UNL     1      -3.263   6.444   6.037  1.00  0.00    -0.550 OA
ATOM      9  O   UNL     1      -2.506   4.639   4.849  1.00  0.00    -0.550 OA
ENDBRANCH   6   7
ENDBRANCH   5   6
ENDBRANCH   4   5
ENDBRANCH   3   4
ENDBRANCH   2   3
ENDBRANCH   1   2
BRANCH   1  10
ATOM     10  C   UNL     1      -5.008   5.549  10.124  1.00  0.00     0.000 C 
BRANCH  10  11
ATOM     11  C   UNL     1      -4.040   6.704   9.839  1.00  0.00    -0.000 C 
BRANCH  11  12
ATOM     12  C   UNL     1      -2.651   6.175   9.452  1.00  0.00    -0.000 C 
BRANCH  12  13
ATOM     13  C   UNL     1      -1.511   6.956  10.125  1.00  0.00    -0.000 C 
BRANCH  13  14
ATOM     14  C   UNL     1      -1.738   8.475  10.101  1.00  0.00    -0.000 C 
BRANCH  14  15
ATOM     15  C   UNL     1      -0.408   9.226   9.969  1.00  0.00    -0.003 C 
ATOM     16  C   UNL     1       0.775   8.262   9.995  1.00  0.00     0.004 C 
ENDBRANCH  14  15
ENDBRANCH  13  14
ENDBRANCH  12  13
ENDBRANCH  11  12
ENDBRANCH  10  11
ENDBRANCH   1  10
TORSDOF 12
ENDMDL
MODEL 5
REMARK VINA RESULT:     0.458      3.368      7.187
REMARK INTER + INTRA:           1.068
REMARK INTER:                   0.839
REMARK INTRA:                   0.229
REMARK UNBOUND:                 0.288
REMARK SMILES CCCCCCCCCCCCCC(=O)[O-]
REMARK SMILES IDX 8 1 9 2 10 3 11 4 12 5 13 6 14 7 15 8 16 9 7 10 6 11 5 12
REMARK SMILES IDX 4 13 3 14 2 15 1 16
REMARK H PARENT
REMARK Flexibility Score: inf
ROOT
ATOM      1  C   UNL     1      -3.859   5.860   9.666  1.00  0.00     0.000 C 
ENDROOT
BRANCH   1   2
ATOM      2  C   UNL     1      -5.088   5.243   8.980  1.00  0.00     0.000 C 
BRANCH   2   3
ATOM      3  C   UNL     1      -6.227   4.940   9.966  1.00  0.00     0.000 C 
BRANCH   3   4
ATOM      4  C   UNL     1      -6.586   3.446   9.946  1.00  0.00     0.000 C 
BRANCH   4   5
ATOM      5  C   UNL     1      -6.219   2.766   8.619  1.00  0.00     0.006 C 
BRANCH   5   6
ATOM      6  C   UNL     1      -4.738   2.368   8.547  1.00  0.00     0.053 C 
BRANCH   6   7
ATOM      7  C   UNL     1      -4.245   2.444   7.138  1.00  0.00     0.041 C 
ATOM      8  O   UNL     1      -3.550   3.424   6.761  1.00  0.00    -0.550 OA
ATOM      9  O   UNL     1      -4.593   1.457   6.225  1.00  0.00    -0.550 OA
ENDBRANCH   6   7
ENDBRANCH   5   6
ENDBRANCH   4   5
ENDBRANCH   3   4
ENDBRANCH   2   3
ENDBRANCH   1   2
BRANCH   1  10
ATOM     10  C   UNL     1      -2.675   6.045   8.705  1.00  0.00     0.000 C 
BRANCH  10  11
ATOM     11  C   UNL     1      -1.495   6.725   9.410  1.00  0.00    -0.000 C 
BRANCH  11  12
ATOM     12  C   UNL     1      -1.866   8.149   9.852  1.00  0.00    -0.000 C 
BRANCH  12  13
ATOM     13  C   UNL     1      -0.881   9.207   9.329  1.00  0.00    -0.000 C 
BRANCH  13  14
ATOM     14  C   UNL     1       0.433   9.237  10.124  1.00  0.00    -0.000 C 
BRANCH  14  15
ATOM     15  C   UNL     1       1.496   8.355   9.460  1.00  0.00    -0.003 C 
ATOM     16  C   UNL     1       2.898   8.730   9.930  1.00  0.00     0.004 C 
ENDBRANCH  14  15
ENDBRANCH  13  14
ENDBRANCH  12  13
ENDBRANCH  11  12
ENDBRANCH  10  11
ENDBRANCH   1  10
TORSDOF 12
ENDMDL
MODEL 6
REMARK VINA RESULT:     1.435      1.289      2.549
REMARK INTER + INTRA:           2.729
REMARK INTER:                   1.271
REMARK INTRA:                   1.458
REMARK UNBOUND:                 0.288
REMARK SMILES CCCCCCCCCCCCCC(=O)[O-]
REMARK SMILES IDX 8 1 9 2 10 3 11 4 12 5 13 6 14 7 15 8 16 9 7 10 6 11 5 12
REMARK SMILES IDX 4 13 3 14 2 15 1 16
REMARK H PARENT
REMARK Flexibility Score: inf
ROOT
ATOM      1  C   UNL     1      -3.493   5.397   7.956  1.00  0.00     0.000 C 
ENDROOT
BRANCH   1   2
ATOM      2  C   UNL     1      -2.497   6.526   8.267  1.00  0.00     0.000 C 
BRANCH   2   3
ATOM      3  C   UNL     1      -2.388   6.822   9.771  1.00  0.00     0.000 C 
BRANCH   3   4
ATOM      4  C   UNL     1      -1.010   7.408  10.115  1.00  0.00     0.000 C 
BRANCH   4   5
ATOM      5  C   UNL     1      -0.840   8.852   9.619  1.00  0.00     0.006 C 
BRANCH   5   6
ATOM      6  C   UNL     1       0.547   9.427   9.939  1.00  0.00     0.053 C 
BRANCH   6   7
ATOM      7  C   UNL     1       1.549   8.327  10.081  1.00  0.00     0.041 C 
ATOM      8  O   UNL     1       2.780   8.592  10.115  1.00  0.00    -0.550 OA
ATOM      9  O   UNL     1       1.129   7.004  10.123  1.00  0.00    -0.550 OA
ENDBRANCH   6   7
ENDBRANCH   5   6
ENDBRANCH   4   5
ENDBRANCH   3   4
ENDBRANCH   2   3
ENDBRANCH   1   2
BRANCH   1  10
ATOM     10  C   UNL     1      -4.086   4.764   9.223  1.00  0.00     0.000 C 
BRANCH  10  11
ATOM     11  C   UNL     1      -5.350   5.509   9.671  1.00  0.00    -0.000 C 
BRANCH  11  12
ATOM     12  C   UNL     1      -6.610   4.681   9.375  1.00  0.00    -0.000 C 
BRANCH  12  13
ATOM     13  C   UNL     1      -6.393   3.175   9.593  1.00  0.00    -0.000 C 
BRANCH  13  14
ATOM     14  C   UNL     1      -6.280   2.396   8.274  1.00  0.00    -0.000 C 
BRANCH  14  15
ATOM     15  C   UNL     1      -4.837   1.940   8.029  1.00  0.00    -0.003 C 
ATOM     16  C   UNL     1      -4.473   2.033   6.550  1.00  0.00     0.004 C 
ENDBRANCH  14  15
ENDBRANCH  13  14
ENDBRANCH  12  13
ENDBRANCH  11  12
ENDBRANCH  10  11
ENDBRANCH   1  10
TORSDOF 12
ENDMDL
MODEL 7
REMARK VINA RESULT:     1.599      2.834      4.678
REMARK INTER + INTRA:           3.008
REMARK INTER:                   3.953
REMARK INTRA:                  -0.946
REMARK UNBOUND:                 0.288
REMARK SMILES CCCCCCCCCCCCCC(=O)[O-]
REMARK SMILES IDX 8 1 9 2 10 3 11 4 12 5 13 6 14 7 15 8 16 9 7 10 6 11 5 12
REMARK SMILES IDX 4 13 3 14 2 15 1 16
REMARK H PARENT
REMARK Flexibility Score: inf
ROOT
ATOM      1  C   UNL     1      -5.625   2.517   8.130  1.00  0.00     0.000 C 
ENDROOT
BRANCH   1   2
ATOM      2  C   UNL     1      -6.300   3.365   9.219  1.00  0.00     0.000 C 
BRANCH   2   3
ATOM      3  C   UNL     1      -5.293   4.181  10.045  1.00  0.00     0.000 C 
BRANCH   3   4
ATOM      4  C   UNL     1      -5.689   5.664  10.082  1.00  0.00     0.000 C 
BRANCH   4   5
ATOM      5  C   UNL     1      -4.473   6.602  10.124  1.00  0.00     0.006 C 
BRANCH   5   6
ATOM      6  C   UNL     1      -3.147   5.860   9.913  1.00  0.00     0.053 C 
BRANCH   6   7
ATOM      7  C   UNL     1      -2.379   6.471   8.785  1.00  0.00     0.041 C 
ATOM      8  O   UNL     1      -2.648   6.161   7.594  1.00  0.00    -0.550 OA
ATOM      9  O   UNL     1      -1.333   7.345   9.048  1.00  0.00    -0.550 OA
ENDBRANCH   6   7
ENDBRANCH   5   6
ENDBRANCH   4   5
ENDBRANCH   3   4
ENDBRANCH   2   3
ENDBRANCH   1   2
BRANCH   1  10
ATOM     10  C   UNL     1      -4.224   3.029   7.764  1.00  0.00     0.000 C 
BRANCH  10  11
ATOM     11  C   UNL     1      -3.247   1.863   7.565  1.00  0.00    -0.000 C 
BRANCH  11  12
ATOM     12  C   UNL     1      -2.762   1.316   8.916  1.00  0.00    -0.000 C 
BRANCH  12  13
ATOM     13  C   UNL     1      -1.530   0.407   8.780  1.00  0.00    -0.000 C 
BRANCH  13  14
ATOM     14  C   UNL     1      -1.891  -1.014   8.320  1.00  0.00    -0.000 C 
BRANCH  14  15
ATOM     15  C   UNL     1      -1.364  -2.060   9.308  1.00  0.00    -0.003 C 
ATOM     16  C   UNL     1      -1.769  -3.470   8.888  1.00  0.00     0.004 C 
ENDBRANCH  14  15
ENDBRANCH  13  14
ENDBRANCH  12  13
ENDBRANCH  11  12
ENDBRANCH  10  11
ENDBRANCH   1  10
TORSDOF 12
ENDMDL
