MODEL 1
REMARK VINA RESULT:    -3.729      0.000      0.000
REMARK INTER + INTRA:          -7.308
REMARK INTER:                  -5.908
REMARK INTRA:                  -1.400
REMARK UNBOUND:                -1.400
REMARK SMILES CCCCCCCCCCCC(=O)[O-]
REMARK SMILES IDX 7 1 8 2 9 3 10 4 11 5 12 6 13 7 14 8 6 9 5 10 4 11 3 12 2 13
REMARK SMILES IDX 1 14
REMARK H PARENT
REMARK Flexibility Score: inf
ROOT
ATOM      1  C   UNL     1      50.155  -7.487 -54.206  1.00  0.00     0.000 C 
ENDROOT
BRANCH   1   2
ATOM      2  C   UNL     1      48.728  -6.961 -53.990  1.00  0.00     0.000 C 
BRANCH   2   3
ATOM      3  C   UNL     1      47.716  -7.768 -54.819  1.00  0.00     0.000 C 
BRANCH   3   4
ATOM      4  C   UNL     1      48.368  -8.937 -55.574  1.00  0.00     0.006 C 
BRANCH   4   5
ATOM      5  C   UNL     1      47.631  -9.287 -56.873  1.00  0.00     0.053 C 
BRANCH   5   6
ATOM      6  C   UNL     1      47.388 -10.761 -56.955  1.00  0.00     0.041 C 
ATOM      7  O   UNL     1      48.194 -11.567 -56.418  1.00  0.00    -0.550 OA
ATOM      8  O   UNL     1      46.299 -11.248 -57.665  1.00  0.00    -0.550 OA
ENDBRANCH   5   6
ENDBRANCH   4   5
ENDBRANCH   3   4
ENDBRANCH   2   3
ENDBRANCH   1   2
BRANCH   1   9
ATOM      9  C   UNL     1      51.072  -6.454 -54.879  1.00  0.00     0.000 C 
BRANCH   9  10
ATOM     10  C   UNL     1      50.336  -5.158 -55.247  1.00  0.00    -0.000 C 
BRANCH  10  11
ATOM     11  C   UNL     1      50.394  -4.906 -56.762  1.00  0.00    -0.000 C 
BRANCH  11  12
ATOM     12  C   UNL     1      49.331  -5.703 -57.536  1.00  0.00    -0.000 C 
BRANCH  12  13
ATOM     13  C   UNL     1      49.944  -6.794 -58.426  1.00  0.00    -0.003 C 
ATOM     14  C   UNL     1      51.417  -6.513 -58.706  1.00  0.00     0.004 C 
ENDBRANCH  12  13
ENDBRANCH  11  12
ENDBRANCH  10  11
ENDBRANCH   9  10
ENDBRANCH   1   9
TORSDOF 10
ENDMDL
MODEL 2
REMARK VINA RESULT:    -3.690      3.093      5.269
REMARK INTER + INTRA:          -7.247
REMARK INTER:                  -6.265
REMARK INTRA:                  -0.981
REMARK UNBOUND:                -1.400
REMARK SMILES CCCCCCCCCCCC(=O)[O-]
REMARK SMILES IDX 7 1 8 2 9 3 10 4 11 5 12 6 13 7 14 8 6 9 5 10 4 11 3 12 2 13
REMARK SMILES IDX 1 14
REMARK H PARENT
REMARK Flexibility Score: inf
ROOT
ATOM      1  C   UNL     1      48.882  -6.947 -54.052  1.00  0.00     0.000 C 
ENDROOT
BRANCH   1   2
ATOM      2  C   UNL     1      50.267  -7.423 -54.517  1.00  0.00     0.000 C 
BRANCH   2   3
ATOM      3  C   UNL     1      51.206  -6.229 -54.747  1.00  0.00     0.000 C 
BRANCH   3   4
ATOM      4  C   UNL     1      50.812  -5.392 -55.975  1.00  0.00     0.006 C 
BRANCH   4   5
ATOM      5  C   UNL     1      50.972  -6.163 -57.291  1.00  0.00     0.053 C 
BRANCH   5   6
ATOM      6  C   UNL     1      52.300  -5.863 -57.913  1.00  0.00     0.041 C 
ATOM      7  O   UNL     1      52.954  -4.848 -57.553  1.00  0.00    -0.550 OA
ATOM      8  O   UNL     1      52.793  -6.676 -58.925  1.00  0.00    -0.550 OA
ENDBRANCH   5   6
ENDBRANCH   4   5
ENDBRANCH   3   4
ENDBRANCH   2   3
ENDBRANCH   1   2
BRANCH   1   9
ATOM      9  C   UNL     1      47.734  -7.700 -54.742  1.00  0.00     0.000 C 
BRANCH   9  10
ATOM     10  C   UNL     1      47.660  -7.417 -56.250  1.00  0.00    -0.000 C 
BRANCH  10  11
ATOM     11  C   UNL     1      47.744  -8.721 -57.057  1.00  0.00    -0.000 C 
BRANCH  11  12
ATOM     12  C   UNL     1      48.031  -9.947 -56.175  1.00  0.00    -0.000 C 
BRANCH  12  13
ATOM     13  C   UNL     1      47.719 -11.273 -56.886  1.00  0.00    -0.003 C 
ATOM     14  C   UNL     1      48.437 -12.439 -56.214  1.00  0.00     0.004 C 
ENDBRANCH  12  13
ENDBRANCH  11  12
ENDBRANCH  10  11
ENDBRANCH   9  10
ENDBRANCH   1   9
TORSDOF 10
ENDMDL
MODEL 3
REMARK VINA RESULT:    -3.657      1.504      2.493
REMARK INTER + INTRA:          -7.194
REMARK INTER:                  -6.314
REMARK INTRA:                  -0.880
REMARK UNBOUND:                -1.400
REMARK SMILES CCCCCCCCCCCC(=O)[O-]
REMARK SMILES IDX 7 1 8 2 9 3 10 4 11 5 12 6 13 7 14 8 6 9 5 10 4 11 3 12 2 13
REMARK SMILES IDX 1 14
REMARK H PARENT
REMARK Flexibility Score: inf
ROOT
ATOM      1  C   UNL     1      48.103  -8.352 -55.472  1.00  0.00     0.000 C 
ENDROOT
BRANCH   1   2
ATOM      2  C   UNL     1      48.047  -8.072 -56.982  1.00  0.00     0.000 C 
BRANCH   2   3
ATOM      3  C   UNL     1      47.850  -9.374 -57.772  1.00  0.00     0.000 C 
BRANCH   3   4
ATOM      4  C   UNL     1      47.203 -10.486 -56.931  1.00  0.00     0.006 C 
BRANCH   4   5
ATOM      5  C   UNL     1      47.705 -11.884 -57.312  1.00  0.00     0.053 C 
BRANCH   5   6
ATOM      6  C   UNL     1      48.442 -12.503 -56.167  1.00  0.00     0.041 C 
ATOM      7  O   UNL     1      49.149 -11.789 -55.408  1.00  0.00    -0.550 OA
ATOM      8  O   UNL     1      48.389 -13.877 -55.967  1.00  0.00    -0.550 OA
ENDBRANCH   5   6
ENDBRANCH   4   5
ENDBRANCH   3   4
ENDBRANCH   2   3
ENDBRANCH   1   2
BRANCH   1   9
ATOM      9  C   UNL     1      49.476  -8.032 -54.860  1.00  0.00     0.000 C 
BRANCH   9  10
ATOM     10  C   UNL     1      49.871  -6.558 -55.026  1.00  0.00    -0.000 C 
BRANCH  10  11
ATOM     11  C   UNL     1      51.397  -6.389 -54.962  1.00  0.00    -0.000 C 
BRANCH  11  12
ATOM     12  C   UNL     1      52.003  -5.963 -56.309  1.00  0.00    -0.000 C 
BRANCH  12  13
ATOM     13  C   UNL     1      51.005  -6.082 -57.471  1.00  0.00    -0.003 C 
ATOM     14  C   UNL     1      51.684  -6.622 -58.726  1.00  0.00     0.004 C 
ENDBRANCH  12  13
ENDBRANCH  11  12
ENDBRANCH  10  11
ENDBRANCH   9  10
ENDBRANCH   1   9
TORSDOF 10
ENDMDL
MODEL 4
REMARK VINA RESULT:    -3.637      1.152      2.227
REMARK INTER + INTRA:          -7.162
REMARK INTER:                  -5.842
REMARK INTRA:                  -1.320
REMARK UNBOUND:                -1.400
REMARK SMILES CCCCCCCCCCCC(=O)[O-]
REMARK SMILES IDX 7 1 8 2 9 3 10 4 11 5 12 6 13 7 14 8 6 9 5 10 4 11 3 12 2 13
REMARK SMILES IDX 1 14
REMARK H PARENT
REMARK Flexibility Score: inf
ROOT
ATOM      1  C   UNL     1      50.162  -7.474 -54.304  1.00  0.00     0.000 C 
ENDROOT
BRANCH   1   2
ATOM      2  C   UNL     1      48.751  -7.091 -53.833  1.00  0.00     0.000 C 
BRANCH   2   3
ATOM      3  C   UNL     1      47.681  -7.783 -54.693  1.00  0.00     0.000 C 
BRANCH   3   4
ATOM      4  C   UNL     1      48.288  -8.664 -55.797  1.00  0.00     0.006 C 
BRANCH   4   5
ATOM      5  C   UNL     1      47.224  -9.433 -56.590  1.00  0.00     0.053 C 
BRANCH   5   6
ATOM      6  C   UNL     1      47.730 -10.792 -56.960  1.00  0.00     0.041 C 
ATOM      7  O   UNL     1      47.527 -11.252 -58.115  1.00  0.00    -0.550 OA
ATOM      8  O   UNL     1      48.384 -11.571 -56.014  1.00  0.00    -0.550 OA
ENDBRANCH   5   6
ENDBRANCH   4   5
ENDBRANCH   3   4
ENDBRANCH   2   3
ENDBRANCH   1   2
BRANCH   1   9
ATOM      9  C   UNL     1      51.012  -6.252 -54.684  1.00  0.00     0.000 C 
BRANCH   9  10
ATOM     10  C   UNL     1      51.326  -6.191 -56.186  1.00  0.00    -0.000 C 
BRANCH  10  11
ATOM     11  C   UNL     1      50.141  -5.606 -56.970  1.00  0.00    -0.000 C 
BRANCH  11  12
ATOM     12  C   UNL     1      49.783  -4.179 -56.524  1.00  0.00    -0.000 C 
BRANCH  12  13
ATOM     13  C   UNL     1      48.330  -4.057 -56.043  1.00  0.00    -0.003 C 
ATOM     14  C   UNL     1      48.269  -3.604 -54.587  1.00  0.00     0.004 C 
ENDBRANCH  12  13
ENDBRANCH  11  12
ENDBRANCH  10  11
ENDBRANCH   9  10
ENDBRANCH   1   9
TORSDOF 10
ENDMDL
MODEL 5
REMARK VINA RESULT:    -3.626      2.193      3.640
REMARK INTER + INTRA:          -7.146
REMARK INTER:                  -6.640
REMARK INTRA:                  -0.506
REMARK UNBOUND:                -1.400
REMARK SMILES CCCCCCCCCCCC(=O)[O-]
REMARK SMILES IDX 7 1 8 2 9 3 10 4 11 5 12 6 13 7 14 8 6 9 5 10 4 11 3 12 2 13
REMARK SMILES IDX 1 14
REMARK H PARENT
REMARK Flexibility Score: inf
ROOT
ATOM      1  C   UNL     1      47.398  -8.459 -56.927  1.00  0.00     0.000 C 
ENDROOT
BRANCH   1   2
ATOM      2  C   UNL     1      47.379  -9.895 -57.474  1.00  0.00     0.000 C 
BRANCH   2   3
ATOM      3  C   UNL     1      48.026 -10.868 -56.476  1.00  0.00     0.000 C 
BRANCH   3   4
ATOM      4  C   UNL     1      47.845 -12.340 -56.882  1.00  0.00     0.006 C 
BRANCH   4   5
ATOM      5  C   UNL     1      48.789 -13.282 -56.126  1.00  0.00     0.053 C 
BRANCH   5   6
ATOM      6  C   UNL     1      48.082 -14.549 -55.762  1.00  0.00     0.041 C 
ATOM      7  O   UNL     1      48.459 -15.648 -56.248  1.00  0.00    -0.550 OA
ATOM      8  O   UNL     1      46.974 -14.511 -54.925  1.00  0.00    -0.550 OA
ENDBRANCH   5   6
ENDBRANCH   4   5
ENDBRANCH   3   4
ENDBRANCH   2   3
ENDBRANCH   1   2
BRANCH   1   9
ATOM      9  C   UNL     1      47.878  -8.387 -55.469  1.00  0.00     0.000 C 
BRANCH   9  10
ATOM     10  C   UNL     1      48.615  -7.077 -55.151  1.00  0.00    -0.000 C 
BRANCH  10  11
ATOM     11  C   UNL     1      50.038  -7.359 -54.645  1.00  0.00    -0.000 C 
BRANCH  11  12
ATOM     12  C   UNL     1      51.020  -6.225 -54.979  1.00  0.00    -0.000 C 
BRANCH  12  13
ATOM     13  C   UNL     1      51.032  -5.873 -56.473  1.00  0.00    -0.003 C 
ATOM     14  C   UNL     1      52.456  -5.841 -57.020  1.00  0.00     0.004 C 
ENDBRANCH  12  13
ENDBRANCH  11  12
ENDBRANCH  10  11
ENDBRANCH   9  10
ENDBRANCH   1   9
TORSDOF 10
ENDMDL
MODEL 6
REMARK VINA RESULT:    -3.558      3.651      5.474
REMARK INTER + INTRA:          -7.038
REMARK INTER:                  -5.821
REMARK INTRA:                  -1.217
REMARK UNBOUND:                -1.400
REMARK SMILES CCCCCCCCCCCC(=O)[O-]
REMARK SMILES IDX 7 1 8 2 9 3 10 4 11 5 12 6 13 7 14 8 6 9 5 10 4 11 3 12 2 13
REMARK SMILES IDX 1 14
REMARK H PARENT
REMARK Flexibility Score: inf
ROOT
ATOM      1  C   UNL     1      50.890  -6.546 -54.895  1.00  0.00     0.000 C 
ENDROOT
BRANCH   1   2
ATOM      2  C   UNL     1      50.412  -5.101 -54.685  1.00  0.00     0.000 C 
BRANCH   2   3
ATOM      3  C   UNL     1      50.180  -4.400 -56.032  1.00  0.00     0.000 C 
BRANCH   3   4
ATOM      4  C   UNL     1      51.085  -4.947 -57.148  1.00  0.00     0.006 C 
BRANCH   4   5
ATOM      5  C   UNL     1      52.055  -3.891 -57.693  1.00  0.00     0.053 C 
BRANCH   5   6
ATOM      6  C   UNL     1      53.365  -4.519 -58.047  1.00  0.00     0.041 C 
ATOM      7  O   UNL     1      54.404  -3.812 -58.136  1.00  0.00    -0.550 OA
ATOM      8  O   UNL     1      53.432  -5.878 -58.327  1.00  0.00    -0.550 OA
ENDBRANCH   5   6
ENDBRANCH   4   5
ENDBRANCH   3   4
ENDBRANCH   2   3
ENDBRANCH   1   2
BRANCH   1   9
ATOM      9  C   UNL     1      49.960  -7.579 -54.239  1.00  0.00     0.000 C 
BRANCH   9  10
ATOM     10  C   UNL     1      48.594  -6.990 -53.858  1.00  0.00    -0.000 C 
BRANCH  10  11
ATOM     11  C   UNL     1      47.461  -7.700 -54.614  1.00  0.00    -0.000 C 
BRANCH  11  12
ATOM     12  C   UNL     1      47.925  -8.298 -55.952  1.00  0.00    -0.000 C 
BRANCH  12  13
ATOM     13  C   UNL     1      47.688  -7.349 -57.137  1.00  0.00    -0.003 C 
ATOM     14  C   UNL     1      48.727  -7.569 -58.232  1.00  0.00     0.004 C 
ENDBRANCH  12  13
ENDBRANCH  11  12
ENDBRANCH  10  11
ENDBRANCH   9  10
ENDBRANCH   1   9
TORSDOF 10
ENDMDL
MODEL 7
REMARK VINA RESULT:    -3.544      1.164      3.359
REMARK INTER + INTRA:          -7.016
REMARK INTER:                  -5.723
REMARK INTRA:                  -1.293
REMARK UNBOUND:                -1.400
REMARK SMILES CCCCCCCCCCCC(=O)[O-]
REMARK SMILES IDX 7 1 8 2 9 3 10 4 11 5 12 6 13 7 14 8 6 9 5 10 4 11 3 12 2 13
REMARK SMILES IDX 1 14
REMARK H PARENT
REMARK Flexibility Score: inf
ROOT
ATOM      1  C   UNL     1      51.795  -6.291 -58.294  1.00  0.00     0.000 C 
ENDROOT
BRANCH   1   2
ATOM      2  C   UNL     1      50.378  -5.984 -58.804  1.00  0.00     0.000 C 
BRANCH   2   3
ATOM      3  C   UNL     1      49.607  -7.283 -59.090  1.00  0.00     0.000 C 
BRANCH   3   4
ATOM      4  C   UNL     1      48.594  -7.625 -57.986  1.00  0.00     0.006 C 
BRANCH   4   5
ATOM      5  C   UNL     1      47.956  -9.007 -58.177  1.00  0.00     0.053 C 
BRANCH   5   6
ATOM      6  C   UNL     1      47.372  -9.494 -56.889  1.00  0.00     0.041 C 
ATOM      7  O   UNL     1      48.018 -10.294 -56.161  1.00  0.00    -0.550 OA
ATOM      8  O   UNL     1      46.092  -9.104 -56.515  1.00  0.00    -0.550 OA
ENDBRANCH   5   6
ENDBRANCH   4   5
ENDBRANCH   3   4
ENDBRANCH   2   3
ENDBRANCH   1   2
BRANCH   1   9
ATOM      9  C   UNL     1      52.054  -5.723 -56.890  1.00  0.00     0.000 C 
BRANCH   9  10
ATOM     10  C   UNL     1      50.948  -4.766 -56.422  1.00  0.00    -0.000 C 
BRANCH  10  11
ATOM     11  C   UNL     1      50.233  -5.320 -55.181  1.00  0.00    -0.000 C 
BRANCH  11  12
ATOM     12  C   UNL     1      50.861  -6.626 -54.668  1.00  0.00    -0.000 C 
BRANCH  12  13
ATOM     13  C   UNL     1      49.824  -7.740 -54.462  1.00  0.00    -0.003 C 
ATOM     14  C   UNL     1      48.490  -7.169 -53.989  1.00  0.00     0.004 C 
ENDBRANCH  12  13
ENDBRANCH  11  12
ENDBRANCH  10  11
ENDBRANCH   9  10
ENDBRANCH   1   9
TORSDOF 10
ENDMDL
MODEL 8
REMARK VINA RESULT:    -3.515      2.178      3.309
REMARK INTER + INTRA:          -6.970
REMARK INTER:                  -5.575
REMARK INTRA:                  -1.395
REMARK UNBOUND:                -1.400
REMARK SMILES CCCCCCCCCCCC(=O)[O-]
REMARK SMILES IDX 7 1 8 2 9 3 10 4 11 5 12 6 13 7 14 8 6 9 5 10 4 11 3 12 2 13
REMARK SMILES IDX 1 14
REMARK H PARENT
REMARK Flexibility Score: inf
ROOT
ATOM      1  C   UNL     1      49.153  -4.298 -55.328  1.00  0.00     0.000 C 
ENDROOT
BRANCH   1   2
ATOM      2  C   UNL     1      50.314  -4.908 -54.529  1.00  0.00     0.000 C 
BRANCH   2   3
ATOM      3  C   UNL     1      50.654  -6.315 -55.045  1.00  0.00     0.000 C 
BRANCH   3   4
ATOM      4  C   UNL     1      50.004  -7.427 -54.206  1.00  0.00     0.006 C 
BRANCH   4   5
ATOM      5  C   UNL     1      48.975  -8.242 -55.000  1.00  0.00     0.053 C 
BRANCH   5   6
ATOM      6  C   UNL     1      47.611  -7.645 -54.852  1.00  0.00     0.041 C 
ATOM      7  O   UNL     1      46.742  -7.821 -55.746  1.00  0.00    -0.550 OA
ATOM      8  O   UNL     1      47.315  -6.854 -53.749  1.00  0.00    -0.550 OA
ENDBRANCH   5   6
ENDBRANCH   4   5
ENDBRANCH   3   4
ENDBRANCH   2   3
ENDBRANCH   1   2
BRANCH   1   9
ATOM      9  C   UNL     1      49.228  -4.628 -56.827  1.00  0.00     0.000 C 
BRANCH   9  10
ATOM     10  C   UNL     1      49.894  -3.514 -57.648  1.00  0.00    -0.000 C 
BRANCH  10  11
ATOM     11  C   UNL     1      51.009  -4.081 -58.538  1.00  0.00    -0.000 C 
BRANCH  11  12
ATOM     12  C   UNL     1      52.290  -4.404 -57.752  1.00  0.00    -0.000 C 
BRANCH  12  13
ATOM     13  C   UNL     1      52.804  -5.827 -58.018  1.00  0.00    -0.003 C 
ATOM     14  C   UNL     1      51.786  -6.640 -58.812  1.00  0.00     0.004 C 
ENDBRANCH  12  13
ENDBRANCH  11  12
ENDBRANCH  10  11
ENDBRANCH   9  10
ENDBRANCH   1   9
TORSDOF 10
ENDMDL
MODEL 9
REMARK VINA RESULT:    -3.479      3.089      4.768
REMARK INTER + INTRA:          -6.913
REMARK INTER:                  -5.316
REMARK INTRA:                  -1.597
REMARK UNBOUND:                -1.400
REMARK SMILES CCCCCCCCCCCC(=O)[O-]
REMARK SMILES IDX 7 1 8 2 9 3 10 4 11 5 12 6 13 7 14 8 6 9 5 10 4 11 3 12 2 13
REMARK SMILES IDX 1 14
REMARK H PARENT
REMARK Flexibility Score: inf
ROOT
ATOM      1  C   UNL     1      49.894  -7.746 -54.251  1.00  0.00     0.000 C 
ENDROOT
BRANCH   1   2
ATOM      2  C   UNL     1      50.867  -6.609 -54.597  1.00  0.00     0.000 C 
BRANCH   2   3
ATOM      3  C   UNL     1      50.733  -6.204 -56.074  1.00  0.00     0.000 C 
BRANCH   3   4
ATOM      4  C   UNL     1      50.695  -4.680 -56.270  1.00  0.00     0.006 C 
BRANCH   4   5
ATOM      5  C   UNL     1      49.356  -4.189 -56.833  1.00  0.00     0.053 C 
BRANCH   5   6
ATOM      6  C   UNL     1      48.336  -4.090 -55.743  1.00  0.00     0.041 C 
ATOM      7  O   UNL     1      47.128  -4.359 -55.978  1.00  0.00    -0.550 OA
ATOM      8  O   UNL     1      48.711  -3.652 -54.479  1.00  0.00    -0.550 OA
ENDBRANCH   5   6
ENDBRANCH   4   5
ENDBRANCH   3   4
ENDBRANCH   2   3
ENDBRANCH   1   2
BRANCH   1   9
ATOM      9  C   UNL     1      48.457  -7.248 -54.030  1.00  0.00     0.000 C 
BRANCH   9  10
ATOM     10  C   UNL     1      47.479  -7.767 -55.095  1.00  0.00    -0.000 C 
BRANCH  10  11
ATOM     11  C   UNL     1      48.000  -9.064 -55.732  1.00  0.00    -0.000 C 
BRANCH  11  12
ATOM     12  C   UNL     1      47.956  -9.029 -57.268  1.00  0.00    -0.000 C 
BRANCH  12  13
ATOM     13  C   UNL     1      47.890  -7.600 -57.826  1.00  0.00    -0.003 C 
ATOM     14  C   UNL     1      48.822  -7.433 -59.022  1.00  0.00     0.004 C 
ENDBRANCH  12  13
ENDBRANCH  11  12
ENDBRANCH  10  11
ENDBRANCH   9  10
ENDBRANCH   1   9
TORSDOF 10
ENDMDL
