MODEL 1
REMARK VINA RESULT:    -4.676      0.000      0.000
REMARK INTER + INTRA:         -10.300
REMARK INTER:                  -9.051
REMARK INTRA:                  -1.250
REMARK UNBOUND:                -1.250
REMARK SMILES CCCCCCCCCCCCCCCCCC(=O)[O-]
REMARK SMILES IDX 10 1 11 2 12 3 13 4 14 5 15 6 16 7 17 8 18 9 19 10 20 11
REMARK SMILES IDX 9 12 8 13 7 14 6 15 5 16 4 17 3 18 2 19 1 20
REMARK H PARENT
REMARK Flexibility Score: inf
ROOT
ATOM      1  C   UNL     1       1.941  13.760  19.123  1.00  0.00     0.000 C 
ENDROOT
BRANCH   1   2
ATOM      2  C   UNL     1       2.994  12.700  18.766  1.00  0.00     0.000 C 
BRANCH   2   3
ATOM      3  C   UNL     1       2.400  11.286  18.847  1.00  0.00     0.000 C 
BRANCH   3   4
ATOM      4  C   UNL     1       3.006  10.320  17.812  1.00  0.00     0.000 C 
BRANCH   4   5
ATOM      5  C   UNL     1       4.330   9.657  18.234  1.00  0.00     0.000 C 
BRANCH   5   6
ATOM      6  C   UNL     1       5.514  10.058  17.336  1.00  0.00     0.000 C 
BRANCH   6   7
ATOM      7  C   UNL     1       6.687  10.661  18.134  1.00  0.00     0.006 C 
BRANCH   7   8
ATOM      8  C   UNL     1       6.250  11.441  19.386  1.00  0.00     0.053 C 
BRANCH   8   9
ATOM      9  C   UNL     1       6.677  10.775  20.659  1.00  0.00     0.041 C 
ATOM     10  O   UNL     1       7.901  10.702  20.957  1.00  0.00    -0.550 OA
ATOM     11  O   UNL     1       5.723  10.247  21.524  1.00  0.00    -0.550 OA
ENDBRANCH   8   9
ENDBRANCH   7   8
ENDBRANCH   6   7
ENDBRANCH   5   6
ENDBRANCH   4   5
ENDBRANCH   3   4
ENDBRANCH   2   3
ENDBRANCH   1   2
BRANCH   1  12
ATOM     12  C   UNL     1       1.621  14.710  17.953  1.00  0.00     0.000 C 
BRANCH  12  13
ATOM     13  C   UNL     1       0.822  15.970  18.333  1.00  0.00    -0.000 C 
BRANCH  13  14
ATOM     14  C   UNL     1      -0.685  15.701  18.486  1.00  0.00    -0.000 C 
BRANCH  14  15
ATOM     15  C   UNL     1      -1.329  16.570  19.578  1.00  0.00    -0.000 C 
BRANCH  15  16
ATOM     16  C   UNL     1      -0.655  17.948  19.713  1.00  0.00    -0.000 C 
BRANCH  16  17
ATOM     17  C   UNL     1      -1.358  19.030  18.877  1.00  0.00    -0.000 C 
BRANCH  17  18
ATOM     18  C   UNL     1      -0.365  20.008  18.224  1.00  0.00    -0.000 C 
BRANCH  18  19
ATOM     19  C   UNL     1       1.088  19.741  18.646  1.00  0.00    -0.003 C 
ATOM     20  C   UNL     1       2.055  19.731  17.462  1.00  0.00     0.004 C 
ENDBRANCH  18  19
ENDBRANCH  17  18
ENDBRANCH  16  17
ENDBRANCH  15  16
ENDBRANCH  14  15
ENDBRANCH  13  14
ENDBRANCH  12  13
ENDBRANCH   1  12
TORSDOF 16
ENDMDL
MODEL 2
REMARK VINA RESULT:    -4.303      1.235      2.519
REMARK INTER + INTRA:          -9.578
REMARK INTER:                  -8.321
REMARK INTRA:                  -1.257
REMARK UNBOUND:                -1.250
REMARK SMILES CCCCCCCCCCCCCCCCCC(=O)[O-]
REMARK SMILES IDX 10 1 11 2 12 3 13 4 14 5 15 6 16 7 17 8 18 9 19 10 20 11
REMARK SMILES IDX 9 12 8 13 7 14 6 15 5 16 4 17 3 18 2 19 1 20
REMARK H PARENT
REMARK Flexibility Score: inf
ROOT
ATOM      1  C   UNL     1       3.069  12.347  18.688  1.00  0.00     0.000 C 
ENDROOT
BRANCH   1   2
ATOM      2  C   UNL     1       2.386  11.164  17.984  1.00  0.00     0.000 C 
BRANCH   2   3
ATOM      3  C   UNL     1       2.799   9.830  18.625  1.00  0.00     0.000 C 
BRANCH   3   4
ATOM      4  C   UNL     1       4.325   9.634  18.672  1.00  0.00     0.000 C 
BRANCH   4   5
ATOM      5  C   UNL     1       5.030   9.672  17.304  1.00  0.00     0.000 C 
BRANCH   5   6
ATOM      6  C   UNL     1       6.392  10.388  17.352  1.00  0.00     0.000 C 
BRANCH   6   7
ATOM      7  C   UNL     1       6.607  11.166  18.665  1.00  0.00     0.006 C 
BRANCH   7   8
ATOM      8  C   UNL     1       7.896  10.778  19.412  1.00  0.00     0.053 C 
BRANCH   8   9
ATOM      9  C   UNL     1       7.650  10.442  20.851  1.00  0.00     0.041 C 
ATOM     10  O   UNL     1       8.573   9.948  21.555  1.00  0.00    -0.550 OA
ATOM     11  O   UNL     1       6.404  10.687  21.421  1.00  0.00    -0.550 OA
ENDBRANCH   8   9
ENDBRANCH   7   8
ENDBRANCH   6   7
ENDBRANCH   5   6
ENDBRANCH   4   5
ENDBRANCH   3   4
ENDBRANCH   2   3
ENDBRANCH   1   2
BRANCH   1  12
ATOM     12  C   UNL     1       2.087  13.475  19.058  1.00  0.00     0.000 C 
BRANCH  12  13
ATOM     13  C   UNL     1       1.804  14.490  17.936  1.00  0.00    -0.000 C 
BRANCH  13  14
ATOM     14  C   UNL     1       0.645  15.445  18.268  1.00  0.00    -0.000 C 
BRANCH  14  15
ATOM     15  C   UNL     1       1.133  16.849  18.661  1.00  0.00    -0.000 C 
BRANCH  15  16
ATOM     16  C   UNL     1       0.035  17.919  18.523  1.00  0.00    -0.000 C 
BRANCH  16  17
ATOM     17  C   UNL     1      -0.664  18.219  19.858  1.00  0.00    -0.000 C 
BRANCH  17  18
ATOM     18  C   UNL     1      -2.035  17.527  19.975  1.00  0.00    -0.000 C 
BRANCH  18  19
ATOM     19  C   UNL     1      -2.124  16.601  21.197  1.00  0.00    -0.003 C 
ATOM     20  C   UNL     1      -1.860  15.136  20.849  1.00  0.00     0.004 C 
ENDBRANCH  18  19
ENDBRANCH  17  18
ENDBRANCH  16  17
ENDBRANCH  15  16
ENDBRANCH  14  15
ENDBRANCH  13  14
ENDBRANCH  12  13
ENDBRANCH   1  12
TORSDOF 16
ENDMDL
MODEL 3
REMARK VINA RESULT:    -4.279      3.580      9.005
REMARK INTER + INTRA:          -9.530
REMARK INTER:                  -8.242
REMARK INTRA:                  -1.288
REMARK UNBOUND:                -1.250
REMARK SMILES CCCCCCCCCCCCCCCCCC(=O)[O-]
REMARK SMILES IDX 10 1 11 2 12 3 13 4 14 5 15 6 16 7 17 8 18 9 19 10 20 11
REMARK SMILES IDX 9 12 8 13 7 14 6 15 5 16 4 17 3 18 2 19 1 20
REMARK H PARENT
REMARK Flexibility Score: inf
ROOT
ATOM      1  C   UNL     1       1.953  13.436  19.114  1.00  0.00     0.000 C 
ENDROOT
BRANCH   1   2
ATOM      2  C   UNL     1       2.112  14.505  18.023  1.00  0.00     0.000 C 
BRANCH   2   3
ATOM      3  C   UNL     1       0.818  15.316  17.853  1.00  0.00     0.000 C 
BRANCH   3   4
ATOM      4  C   UNL     1      -0.084  15.273  19.100  1.00  0.00     0.000 C 
BRANCH   4   5
ATOM      5  C   UNL     1      -1.448  15.971  18.942  1.00  0.00     0.000 C 
BRANCH   5   6
ATOM      6  C   UNL     1      -1.922  16.658  20.234  1.00  0.00     0.000 C 
BRANCH   6   7
ATOM      7  C   UNL     1      -1.759  18.191  20.185  1.00  0.00     0.006 C 
BRANCH   7   8
ATOM      8  C   UNL     1      -1.141  18.707  18.874  1.00  0.00     0.053 C 
BRANCH   8   9
ATOM      9  C   UNL     1       0.231  19.278  19.069  1.00  0.00     0.041 C 
ATOM     10  O   UNL     1       1.076  19.237  18.132  1.00  0.00    -0.550 OA
ATOM     11  O   UNL     1       0.574  19.869  20.281  1.00  0.00    -0.550 OA
ENDBRANCH   8   9
ENDBRANCH   7   8
ENDBRANCH   6   7
ENDBRANCH   5   6
ENDBRANCH   4   5
ENDBRANCH   3   4
ENDBRANCH   2   3
ENDBRANCH   1   2
BRANCH   1  12
ATOM     12  C   UNL     1       3.021  12.329  19.034  1.00  0.00     0.000 C 
BRANCH  12  13
ATOM     13  C   UNL     1       2.477  10.914  18.763  1.00  0.00    -0.000 C 
BRANCH  13  14
ATOM     14  C   UNL     1       3.128  10.245  17.541  1.00  0.00    -0.000 C 
BRANCH  14  15
ATOM     15  C   UNL     1       4.472   9.580  17.882  1.00  0.00    -0.000 C 
BRANCH  15  16
ATOM     16  C   UNL     1       5.587   9.953  16.889  1.00  0.00    -0.000 C 
BRANCH  16  17
ATOM     17  C   UNL     1       6.821  10.548  17.587  1.00  0.00    -0.000 C 
BRANCH  17  18
ATOM     18  C   UNL     1       6.455  11.347  18.851  1.00  0.00    -0.000 C 
BRANCH  18  19
ATOM     19  C   UNL     1       6.969  10.681  20.136  1.00  0.00    -0.003 C 
ATOM     20  C   UNL     1       5.843  10.306  21.099  1.00  0.00     0.004 C 
ENDBRANCH  18  19
ENDBRANCH  17  18
ENDBRANCH  16  17
ENDBRANCH  15  16
ENDBRANCH  14  15
ENDBRANCH  13  14
ENDBRANCH  12  13
ENDBRANCH   1  12
TORSDOF 16
ENDMDL
MODEL 4
REMARK VINA RESULT:    -4.267      1.467      2.241
REMARK INTER + INTRA:          -9.508
REMARK INTER:                  -8.214
REMARK INTRA:                  -1.293
REMARK UNBOUND:                -1.250
REMARK SMILES CCCCCCCCCCCCCCCCCC(=O)[O-]
REMARK SMILES IDX 10 1 11 2 12 3 13 4 14 5 15 6 16 7 17 8 18 9 19 10 20 11
REMARK SMILES IDX 9 12 8 13 7 14 6 15 5 16 4 17 3 18 2 19 1 20
REMARK H PARENT
REMARK Flexibility Score: inf
ROOT
ATOM      1  C   UNL     1       1.050  14.888  17.610  1.00  0.00     0.000 C 
ENDROOT
BRANCH   1   2
ATOM      2  C   UNL     1       2.329  14.346  18.268  1.00  0.00     0.000 C 
BRANCH   2   3
ATOM      3  C   UNL     1       2.015  13.142  19.169  1.00  0.00     0.000 C 
BRANCH   3   4
ATOM      4  C   UNL     1       3.012  11.982  18.989  1.00  0.00     0.000 C 
BRANCH   4   5
ATOM      5  C   UNL     1       2.443  10.738  18.283  1.00  0.00     0.000 C 
BRANCH   5   6
ATOM      6  C   UNL     1       3.426   9.554  18.271  1.00  0.00     0.000 C 
BRANCH   6   7
ATOM      7  C   UNL     1       4.879   9.987  18.550  1.00  0.00     0.006 C 
BRANCH   7   8
ATOM      8  C   UNL     1       5.763  10.043  17.290  1.00  0.00     0.053 C 
BRANCH   8   9
ATOM      9  C   UNL     1       6.939  10.958  17.452  1.00  0.00     0.041 C 
ATOM     10  O   UNL     1       7.664  11.241  16.459  1.00  0.00    -0.550 OA
ATOM     11  O   UNL     1       7.227  11.510  18.696  1.00  0.00    -0.550 OA
ENDBRANCH   8   9
ENDBRANCH   7   8
ENDBRANCH   6   7
ENDBRANCH   5   6
ENDBRANCH   4   5
ENDBRANCH   3   4
ENDBRANCH   2   3
ENDBRANCH   1   2
BRANCH   1  12
ATOM     12  C   UNL     1       0.401  16.034  18.409  1.00  0.00     0.000 C 
BRANCH  12  13
ATOM     13  C   UNL     1      -1.136  15.992  18.481  1.00  0.00    -0.000 C 
BRANCH  13  14
ATOM     14  C   UNL     1      -1.662  15.671  19.891  1.00  0.00    -0.000 C 
BRANCH  14  15
ATOM     15  C   UNL     1      -1.859  16.934  20.746  1.00  0.00    -0.000 C 
BRANCH  15  16
ATOM     16  C   UNL     1      -2.059  18.201  19.894  1.00  0.00    -0.000 C 
BRANCH  16  17
ATOM     17  C   UNL     1      -1.229  19.390  20.406  1.00  0.00    -0.000 C 
BRANCH  17  18
ATOM     18  C   UNL     1       0.106  19.544  19.655  1.00  0.00    -0.000 C 
BRANCH  18  19
ATOM     19  C   UNL     1      -0.085  19.693  18.139  1.00  0.00    -0.003 C 
ATOM     20  C   UNL     1       1.240  19.787  17.383  1.00  0.00     0.004 C 
ENDBRANCH  18  19
ENDBRANCH  17  18
ENDBRANCH  16  17
ENDBRANCH  15  16
ENDBRANCH  14  15
ENDBRANCH  13  14
ENDBRANCH  12  13
ENDBRANCH   1  12
TORSDOF 16
ENDMDL
MODEL 5
REMARK VINA RESULT:    -4.182      3.696      9.035
REMARK INTER + INTRA:          -9.344
REMARK INTER:                  -7.945
REMARK INTRA:                  -1.399
REMARK UNBOUND:                -1.250
REMARK SMILES CCCCCCCCCCCCCCCCCC(=O)[O-]
REMARK SMILES IDX 10 1 11 2 12 3 13 4 14 5 15 6 16 7 17 8 18 9 19 10 20 11
REMARK SMILES IDX 9 12 8 13 7 14 6 15 5 16 4 17 3 18 2 19 1 20
REMARK H PARENT
REMARK Flexibility Score: inf
ROOT
ATOM      1  C   UNL     1       2.419  11.025  18.742  1.00  0.00     0.000 C 
ENDROOT
BRANCH   1   2
ATOM      2  C   UNL     1       3.064  12.420  18.747  1.00  0.00     0.000 C 
BRANCH   2   3
ATOM      3  C   UNL     1       2.036  13.500  19.116  1.00  0.00     0.000 C 
BRANCH   3   4
ATOM      4  C   UNL     1       1.972  14.644  18.088  1.00  0.00     0.000 C 
BRANCH   4   5
ATOM      5  C   UNL     1       0.609  15.353  17.984  1.00  0.00     0.000 C 
BRANCH   5   6
ATOM      6  C   UNL     1       0.664  16.826  18.425  1.00  0.00     0.000 C 
BRANCH   6   7
ATOM      7  C   UNL     1      -0.710  17.364  18.871  1.00  0.00     0.006 C 
BRANCH   7   8
ATOM      8  C   UNL     1      -0.854  18.891  18.733  1.00  0.00     0.053 C 
BRANCH   8   9
ATOM      9  C   UNL     1       0.385  19.626  19.147  1.00  0.00     0.041 C 
ATOM     10  O   UNL     1       0.613  19.849  20.367  1.00  0.00    -0.550 OA
ATOM     11  O   UNL     1       1.295  20.054  18.185  1.00  0.00    -0.550 OA
ENDBRANCH   8   9
ENDBRANCH   7   8
ENDBRANCH   6   7
ENDBRANCH   5   6
ENDBRANCH   4   5
ENDBRANCH   3   4
ENDBRANCH   2   3
ENDBRANCH   1   2
BRANCH   1  12
ATOM     12  C   UNL     1       3.043  10.077  17.701  1.00  0.00     0.000 C 
BRANCH  12  13
ATOM     13  C   UNL     1       4.487   9.634  18.002  1.00  0.00    -0.000 C 
BRANCH  13  14
ATOM     14  C   UNL     1       5.413   9.737  16.778  1.00  0.00    -0.000 C 
BRANCH  14  15
ATOM     15  C   UNL     1       6.703  10.517  17.082  1.00  0.00    -0.000 C 
BRANCH  15  16
ATOM     16  C   UNL     1       6.644  11.256  18.431  1.00  0.00    -0.000 C 
BRANCH  16  17
ATOM     17  C   UNL     1       7.712  10.761  19.420  1.00  0.00    -0.000 C 
BRANCH  17  18
ATOM     18  C   UNL     1       7.104  10.248  20.737  1.00  0.00    -0.000 C 
BRANCH  18  19
ATOM     19  C   UNL     1       5.778  10.940  21.082  1.00  0.00    -0.003 C 
ATOM     20  C   UNL     1       4.668   9.950  21.435  1.00  0.00     0.004 C 
ENDBRANCH  18  19
ENDBRANCH  17  18
ENDBRANCH  16  17
ENDBRANCH  15  16
ENDBRANCH  14  15
ENDBRANCH  13  14
ENDBRANCH  12  13
ENDBRANCH   1  12
TORSDOF 16
ENDMDL
MODEL 6
REMARK VINA RESULT:    -4.181      3.574      9.161
REMARK INTER + INTRA:          -9.342
REMARK INTER:                  -8.430
REMARK INTRA:                  -0.912
REMARK UNBOUND:                -1.250
REMARK SMILES CCCCCCCCCCCCCCCCCC(=O)[O-]
REMARK SMILES IDX 10 1 11 2 12 3 13 4 14 5 15 6 16 7 17 8 18 9 19 10 20 11
REMARK SMILES IDX 9 12 8 13 7 14 6 15 5 16 4 17 3 18 2 19 1 20
REMARK H PARENT
REMARK Flexibility Score: inf
ROOT
ATOM      1  C   UNL     1       2.190  14.562  18.325  1.00  0.00     0.000 C 
ENDROOT
BRANCH   1   2
ATOM      2  C   UNL     1       0.845  15.026  17.745  1.00  0.00     0.000 C 
BRANCH   2   3
ATOM      3  C   UNL     1       0.037  15.810  18.790  1.00  0.00     0.000 C 
BRANCH   3   4
ATOM      4  C   UNL     1      -1.432  16.022  18.378  1.00  0.00     0.000 C 
BRANCH   4   5
ATOM      5  C   UNL     1      -2.116  17.249  19.007  1.00  0.00     0.000 C 
BRANCH   5   6
ATOM      6  C   UNL     1      -1.313  17.849  20.175  1.00  0.00     0.000 C 
BRANCH   6   7
ATOM      7  C   UNL     1      -0.871  19.302  19.908  1.00  0.00     0.006 C 
BRANCH   7   8
ATOM      8  C   UNL     1      -0.738  19.645  18.414  1.00  0.00     0.053 C 
BRANCH   8   9
ATOM      9  C   UNL     1       0.659  19.461  17.902  1.00  0.00     0.041 C 
ATOM     10  O   UNL     1       0.955  19.806  16.725  1.00  0.00    -0.550 OA
ATOM     11  O   UNL     1       1.638  18.920  18.730  1.00  0.00    -0.550 OA
ENDBRANCH   8   9
ENDBRANCH   7   8
ENDBRANCH   6   7
ENDBRANCH   5   6
ENDBRANCH   4   5
ENDBRANCH   3   4
ENDBRANCH   2   3
ENDBRANCH   1   2
BRANCH   1  12
ATOM     12  C   UNL     1       2.083  13.247  19.119  1.00  0.00     0.000 C 
BRANCH  12  13
ATOM     13  C   UNL     1       3.123  12.173  18.750  1.00  0.00    -0.000 C 
BRANCH  13  14
ATOM     14  C   UNL     1       2.484  10.873  18.234  1.00  0.00    -0.000 C 
BRANCH  14  15
ATOM     15  C   UNL     1       3.519   9.756  18.016  1.00  0.00    -0.000 C 
BRANCH  15  16
ATOM     16  C   UNL     1       4.813   9.983  18.820  1.00  0.00    -0.000 C 
BRANCH  16  17
ATOM     17  C   UNL     1       4.623   9.729  20.323  1.00  0.00    -0.000 C 
BRANCH  17  18
ATOM     18  C   UNL     1       5.750  10.344  21.173  1.00  0.00    -0.000 C 
BRANCH  18  19
ATOM     19  C   UNL     1       7.019  10.620  20.354  1.00  0.00    -0.003 C 
ATOM     20  C   UNL     1       8.292  10.161  21.064  1.00  0.00     0.004 C 
ENDBRANCH  18  19
ENDBRANCH  17  18
ENDBRANCH  16  17
ENDBRANCH  15  16
ENDBRANCH  14  15
ENDBRANCH  13  14
ENDBRANCH  12  13
ENDBRANCH   1  12
TORSDOF 16
ENDMDL
MODEL 7
REMARK VINA RESULT:    -4.137      1.765      2.436
REMARK INTER + INTRA:          -9.257
REMARK INTER:                  -8.203
REMARK INTRA:                  -1.054
REMARK UNBOUND:                -1.250
REMARK SMILES CCCCCCCCCCCCCCCCCC(=O)[O-]
REMARK SMILES IDX 10 1 11 2 12 3 13 4 14 5 15 6 16 7 17 8 18 9 19 10 20 11
REMARK SMILES IDX 9 12 8 13 7 14 6 15 5 16 4 17 3 18 2 19 1 20
REMARK H PARENT
REMARK Flexibility Score: inf
ROOT
ATOM      1  C   UNL     1       2.266  12.297  18.962  1.00  0.00     0.000 C 
ENDROOT
BRANCH   1   2
ATOM      2  C   UNL     1       3.697  11.764  19.137  1.00  0.00     0.000 C 
BRANCH   2   3
ATOM      3  C   UNL     1       3.725  10.230  19.069  1.00  0.00     0.000 C 
BRANCH   3   4
ATOM      4  C   UNL     1       4.570   9.595  20.188  1.00  0.00     0.000 C 
BRANCH   4   5
ATOM      5  C   UNL     1       5.245  10.595  21.144  1.00  0.00     0.000 C 
BRANCH   5   6
ATOM      6  C   UNL     1       6.761  10.718  20.909  1.00  0.00     0.000 C 
BRANCH   6   7
ATOM      7  C   UNL     1       7.174  10.321  19.478  1.00  0.00     0.006 C 
BRANCH   7   8
ATOM      8  C   UNL     1       7.073  11.473  18.461  1.00  0.00     0.053 C 
BRANCH   8   9
ATOM      9  C   UNL     1       7.160  10.998  17.042  1.00  0.00     0.041 C 
ATOM     10  O   UNL     1       8.038  11.468  16.268  1.00  0.00    -0.550 OA
ATOM     11  O   UNL     1       6.279  10.026  16.578  1.00  0.00    -0.550 OA
ENDBRANCH   8   9
ENDBRANCH   7   8
ENDBRANCH   6   7
ENDBRANCH   5   6
ENDBRANCH   4   5
ENDBRANCH   3   4
ENDBRANCH   2   3
ENDBRANCH   1   2
BRANCH   1  12
ATOM     12  C   UNL     1       2.174  13.829  19.084  1.00  0.00     0.000 C 
BRANCH  12  13
ATOM     13  C   UNL     1       1.642  14.555  17.835  1.00  0.00    -0.000 C 
BRANCH  13  14
ATOM     14  C   UNL     1       1.077  15.951  18.147  1.00  0.00    -0.000 C 
BRANCH  14  15
ATOM     15  C   UNL     1      -0.428  15.919  18.460  1.00  0.00    -0.000 C 
BRANCH  15  16
ATOM     16  C   UNL     1      -0.876  17.101  19.340  1.00  0.00    -0.000 C 
BRANCH  16  17
ATOM     17  C   UNL     1      -1.324  18.315  18.509  1.00  0.00    -0.000 C 
BRANCH  17  18
ATOM     18  C   UNL     1      -0.647  19.622  18.963  1.00  0.00    -0.000 C 
BRANCH  18  19
ATOM     19  C   UNL     1       0.885  19.537  18.917  1.00  0.00    -0.003 C 
ATOM     20  C   UNL     1       1.449  19.771  17.516  1.00  0.00     0.004 C 
ENDBRANCH  18  19
ENDBRANCH  17  18
ENDBRANCH  16  17
ENDBRANCH  15  16
ENDBRANCH  14  15
ENDBRANCH  13  14
ENDBRANCH  12  13
ENDBRANCH   1  12
TORSDOF 16
ENDMDL
MODEL 8
REMARK VINA RESULT:    -3.861      1.940      3.441
REMARK INTER + INTRA:          -8.722
REMARK INTER:                  -7.863
REMARK INTRA:                  -0.860
REMARK UNBOUND:                -1.250
REMARK SMILES CCCCCCCCCCCCCCCCCC(=O)[O-]
REMARK SMILES IDX 10 1 11 2 12 3 13 4 14 5 15 6 16 7 17 8 18 9 19 10 20 11
REMARK SMILES IDX 9 12 8 13 7 14 6 15 5 16 4 17 3 18 2 19 1 20
REMARK H PARENT
REMARK Flexibility Score: inf
ROOT
ATOM      1  C   UNL     1       4.464  12.457  19.642  1.00  0.00     0.000 C 
ENDROOT
BRANCH   1   2
ATOM      2  C   UNL     1       4.933  11.108  20.209  1.00  0.00     0.000 C 
BRANCH   2   3
ATOM      3  C   UNL     1       6.378  10.805  19.783  1.00  0.00     0.000 C 
BRANCH   3   4
ATOM      4  C   UNL     1       6.751  11.437  18.430  1.00  0.00     0.000 C 
BRANCH   4   5
ATOM      5  C   UNL     1       6.993  10.436  17.286  1.00  0.00     0.000 C 
BRANCH   5   6
ATOM      6  C   UNL     1       5.701  10.043  16.549  1.00  0.00     0.000 C 
BRANCH   6   7
ATOM      7  C   UNL     1       4.695   9.314  17.462  1.00  0.00     0.006 C 
BRANCH   7   8
ATOM      8  C   UNL     1       3.228   9.477  17.024  1.00  0.00     0.053 C 
BRANCH   8   9
ATOM      9  C   UNL     1       2.260   8.972  18.051  1.00  0.00     0.041 C 
ATOM     10  O   UNL     1       2.604   8.892  19.263  1.00  0.00    -0.550 OA
ATOM     11  O   UNL     1       0.973   8.602  17.674  1.00  0.00    -0.550 OA
ENDBRANCH   8   9
ENDBRANCH   7   8
ENDBRANCH   6   7
ENDBRANCH   5   6
ENDBRANCH   4   5
ENDBRANCH   3   4
ENDBRANCH   2   3
ENDBRANCH   1   2
BRANCH   1  12
ATOM     12  C   UNL     1       3.142  12.354  18.858  1.00  0.00     0.000 C 
BRANCH  12  13
ATOM     13  C   UNL     1       2.111  13.454  19.169  1.00  0.00    -0.000 C 
BRANCH  13  14
ATOM     14  C   UNL     1       1.744  14.298  17.936  1.00  0.00    -0.000 C 
BRANCH  14  15
ATOM     15  C   UNL     1       1.357  15.740  18.305  1.00  0.00    -0.000 C 
BRANCH  15  16
ATOM     16  C   UNL     1      -0.166  15.935  18.415  1.00  0.00    -0.000 C 
BRANCH  16  17
ATOM     17  C   UNL     1      -0.550  17.387  18.741  1.00  0.00    -0.000 C 
BRANCH  17  18
ATOM     18  C   UNL     1       0.677  18.307  18.870  1.00  0.00    -0.000 C 
BRANCH  18  19
ATOM     19  C   UNL     1       0.564  19.564  17.995  1.00  0.00    -0.003 C 
ATOM     20  C   UNL     1       1.860  19.884  17.250  1.00  0.00     0.004 C 
ENDBRANCH  18  19
ENDBRANCH  17  18
ENDBRANCH  16  17
ENDBRANCH  15  16
ENDBRANCH  14  15
ENDBRANCH  13  14
ENDBRANCH  12  13
ENDBRANCH   1  12
TORSDOF 16
ENDMDL
MODEL 9
REMARK VINA RESULT:    -3.846      0.979      2.031
REMARK INTER + INTRA:          -8.693
REMARK INTER:                  -7.504
REMARK INTRA:                  -1.189
REMARK UNBOUND:                -1.250
REMARK SMILES CCCCCCCCCCCCCCCCCC(=O)[O-]
REMARK SMILES IDX 10 1 11 2 12 3 13 4 14 5 15 6 16 7 17 8 18 9 19 10 20 11
REMARK SMILES IDX 9 12 8 13 7 14 6 15 5 16 4 17 3 18 2 19 1 20
REMARK H PARENT
REMARK Flexibility Score: inf
ROOT
ATOM      1  C   UNL     1       0.965  15.586  17.856  1.00  0.00     0.000 C 
ENDROOT
BRANCH   1   2
ATOM      2  C   UNL     1       1.966  14.421  17.835  1.00  0.00     0.000 C 
BRANCH   2   3
ATOM      3  C   UNL     1       1.946  13.653  19.165  1.00  0.00     0.000 C 
BRANCH   3   4
ATOM      4  C   UNL     1       2.937  12.475  19.194  1.00  0.00     0.000 C 
BRANCH   4   5
ATOM      5  C   UNL     1       2.728  11.420  18.092  1.00  0.00     0.000 C 
BRANCH   5   6
ATOM      6  C   UNL     1       3.160  10.008  18.525  1.00  0.00     0.000 C 
BRANCH   6   7
ATOM      7  C   UNL     1       4.094  10.023  19.752  1.00  0.00     0.006 C 
BRANCH   7   8
ATOM      8  C   UNL     1       5.589  10.097  19.394  1.00  0.00     0.053 C 
BRANCH   8   9
ATOM      9  C   UNL     1       6.437  10.541  20.547  1.00  0.00     0.041 C 
ATOM     10  O   UNL     1       7.613  10.954  20.348  1.00  0.00    -0.550 OA
ATOM     11  O   UNL     1       5.925  10.513  21.840  1.00  0.00    -0.550 OA
ENDBRANCH   8   9
ENDBRANCH   7   8
ENDBRANCH   6   7
ENDBRANCH   5   6
ENDBRANCH   4   5
ENDBRANCH   3   4
ENDBRANCH   2   3
ENDBRANCH   1   2
BRANCH   1  12
ATOM     12  C   UNL     1      -0.254  15.316  18.759  1.00  0.00     0.000 C 
BRANCH  12  13
ATOM     13  C   UNL     1      -1.501  16.163  18.444  1.00  0.00    -0.000 C 
BRANCH  13  14
ATOM     14  C   UNL     1      -1.932  17.056  19.620  1.00  0.00    -0.000 C 
BRANCH  14  15
ATOM     15  C   UNL     1      -0.786  17.944  20.134  1.00  0.00    -0.000 C 
BRANCH  15  16
ATOM     16  C   UNL     1      -0.955  19.421  19.733  1.00  0.00    -0.000 C 
BRANCH  16  17
ATOM     17  C   UNL     1       0.392  20.123  19.497  1.00  0.00    -0.000 C 
BRANCH  17  18
ATOM     18  C   UNL     1       1.328  19.313  18.582  1.00  0.00    -0.000 C 
BRANCH  18  19
ATOM     19  C   UNL     1       1.665  20.055  17.281  1.00  0.00    -0.003 C 
ATOM     20  C   UNL     1       0.498  20.079  16.294  1.00  0.00     0.004 C 
ENDBRANCH  18  19
ENDBRANCH  17  18
ENDBRANCH  16  17
ENDBRANCH  15  16
ENDBRANCH  14  15
ENDBRANCH  13  14
ENDBRANCH  12  13
ENDBRANCH   1  12
TORSDOF 16
ENDMDL
