MODEL 1
REMARK VINA RESULT:    -4.818      0.000      0.000
REMARK INTER + INTRA:         -18.218
REMARK INTER:                 -12.704
REMARK INTRA:                  -5.514
REMARK UNBOUND:                -5.514
REMARK SMILES CCCCCCCCCCCCCCCCCCCCCCCCCCCCCC(=O)[O-]
REMARK SMILES IDX 16 1 17 2 18 3 19 4 20 5 21 6 22 7 23 8 24 9 25 10 26 11
REMARK SMILES IDX 27 12 28 13 29 14 30 15 31 16 32 17 15 18 14 19 13 20 12 21
REMARK SMILES IDX 11 22 10 23 9 24 8 25 7 26 6 27 5 28 4 29 3 30 2 31 1 32
REMARK H PARENT
REMARK Flexibility Score: inf
ROOT
ATOM      1  C   UNL     1      39.101  64.738   8.319  1.00  0.00     0.000 C 
ENDROOT
BRANCH   1   2
ATOM      2  C   UNL     1      39.790  63.485   8.891  1.00  0.00     0.000 C 
BRANCH   2   3
ATOM      3  C   UNL     1      39.462  62.206   8.101  1.00  0.00     0.000 C 
BRANCH   3   4
ATOM      4  C   UNL     1      40.359  61.023   8.502  1.00  0.00     0.000 C 
BRANCH   4   5
ATOM      5  C   UNL     1      41.827  61.240   8.111  1.00  0.00     0.000 C 
BRANCH   5   6
ATOM      6  C   UNL     1      42.423  59.972   7.481  1.00  0.00     0.000 C 
BRANCH   6   7
ATOM      7  C   UNL     1      41.800  58.680   8.037  1.00  0.00     0.000 C 
BRANCH   7   8
ATOM      8  C   UNL     1      41.347  57.667   6.968  1.00  0.00     0.000 C 
BRANCH   8   9
ATOM      9  C   UNL     1      40.945  58.280   5.611  1.00  0.00     0.000 C 
BRANCH   9  10
ATOM     10  C   UNL     1      39.502  58.809   5.528  1.00  0.00     0.000 C 
BRANCH  10  11
ATOM     11  C   UNL     1      39.415  60.255   5.010  1.00  0.00     0.000 C 
BRANCH  11  12
ATOM     12  C   UNL     1      40.664  60.682   4.218  1.00  0.00     0.000 C 
BRANCH  12  13
ATOM     13  C   UNL     1      40.400  61.156   2.774  1.00  0.00     0.006 C 
BRANCH  13  14
ATOM     14  C   UNL     1      39.704  60.118   1.882  1.00  0.00     0.053 C 
BRANCH  14  15
ATOM     15  C   UNL     1      40.694  59.285   1.127  1.00  0.00     0.041 C 
ATOM     16  O   UNL     1      41.607  59.834   0.455  1.00  0.00    -0.550 OA
ATOM     17  O   UNL     1      40.592  57.899   1.147  1.00  0.00    -0.550 OA
ENDBRANCH  14  15
ENDBRANCH  13  14
ENDBRANCH  12  13
ENDBRANCH  11  12
ENDBRANCH  10  11
ENDBRANCH   9  10
ENDBRANCH   8   9
ENDBRANCH   7   8
ENDBRANCH   6   7
ENDBRANCH   5   6
ENDBRANCH   4   5
ENDBRANCH   3   4
ENDBRANCH   2   3
ENDBRANCH   1   2
BRANCH   1  18
ATOM     18  C   UNL     1      38.787  64.686   6.812  1.00  0.00     0.000 C 
BRANCH  18  19
ATOM     19  C   UNL     1      39.894  65.313   5.946  1.00  0.00     0.000 C 
BRANCH  19  20
ATOM     20  C   UNL     1      40.838  64.259   5.348  1.00  0.00     0.000 C 
BRANCH  20  21
ATOM     21  C   UNL     1      42.241  64.286   5.972  1.00  0.00     0.000 C 
BRANCH  21  22
ATOM     22  C   UNL     1      42.483  65.611   6.705  1.00  0.00     0.000 C 
BRANCH  22  23
ATOM     23  C   UNL     1      43.536  66.461   5.974  1.00  0.00     0.000 C 
BRANCH  23  24
ATOM     24  C   UNL     1      44.050  65.784   4.690  1.00  0.00    -0.000 C 
BRANCH  24  25
ATOM     25  C   UNL     1      45.585  65.630   4.633  1.00  0.00    -0.000 C 
BRANCH  25  26
ATOM     26  C   UNL     1      46.045  64.349   3.909  1.00  0.00    -0.000 C 
BRANCH  26  27
ATOM     27  C   UNL     1      44.901  63.330   3.747  1.00  0.00    -0.000 C 
BRANCH  27  28
ATOM     28  C   UNL     1      45.110  62.394   2.544  1.00  0.00    -0.000 C 
BRANCH  28  29
ATOM     29  C   UNL     1      44.051  61.274   2.444  1.00  0.00    -0.000 C 
BRANCH  29  30
ATOM     30  C   UNL     1      44.599  59.897   2.851  1.00  0.00    -0.000 C 
BRANCH  30  31
ATOM     31  C   UNL     1      44.273  59.585   4.317  1.00  0.00    -0.003 C 
ATOM     32  C   UNL     1      44.488  58.106   4.627  1.00  0.00     0.004 C 
ENDBRANCH  30  31
ENDBRANCH  29  30
ENDBRANCH  28  29
ENDBRANCH  27  28
ENDBRANCH  26  27
ENDBRANCH  25  26
ENDBRANCH  24  25
ENDBRANCH  23  24
ENDBRANCH  22  23
ENDBRANCH  21  22
ENDBRANCH  20  21
ENDBRANCH  19  20
ENDBRANCH  18  19
ENDBRANCH   1  18
TORSDOF 28
ENDMDL
MODEL 2
REMARK VINA RESULT:    -4.735      2.035      4.301
REMARK INTER + INTRA:         -18.000
REMARK INTER:                 -11.848
REMARK INTRA:                  -6.151
REMARK UNBOUND:                -5.514
REMARK SMILES CCCCCCCCCCCCCCCCCCCCCCCCCCCCCC(=O)[O-]
REMARK SMILES IDX 16 1 17 2 18 3 19 4 20 5 21 6 22 7 23 8 24 9 25 10 26 11
REMARK SMILES IDX 27 12 28 13 29 14 30 15 31 16 32 17 15 18 14 19 13 20 12 21
REMARK SMILES IDX 11 22 10 23 9 24 8 25 7 26 6 27 5 28 4 29 3 30 2 31 1 32
REMARK H PARENT
REMARK Flexibility Score: inf
ROOT
ATOM      1  C   UNL     1      39.809  61.707   7.890  1.00  0.00     0.000 C 
ENDROOT
BRANCH   1   2
ATOM      2  C   UNL     1      41.088  60.984   8.352  1.00  0.00     0.000 C 
BRANCH   2   3
ATOM      3  C   UNL     1      41.115  59.498   7.954  1.00  0.00     0.000 C 
BRANCH   3   4
ATOM      4  C   UNL     1      42.468  58.834   8.257  1.00  0.00     0.000 C 
BRANCH   4   5
ATOM      5  C   UNL     1      42.822  57.734   7.246  1.00  0.00     0.000 C 
BRANCH   5   6
ATOM      6  C   UNL     1      41.672  56.725   7.105  1.00  0.00     0.000 C 
BRANCH   6   7
ATOM      7  C   UNL     1      42.014  55.557   6.165  1.00  0.00     0.000 C 
BRANCH   7   8
ATOM      8  C   UNL     1      43.068  55.879   5.087  1.00  0.00     0.000 C 
BRANCH   8   9
ATOM      9  C   UNL     1      42.572  55.772   3.631  1.00  0.00     0.000 C 
BRANCH   9  10
ATOM     10  C   UNL     1      41.073  55.463   3.467  1.00  0.00     0.000 C 
BRANCH  10  11
ATOM     11  C   UNL     1      40.507  55.909   2.107  1.00  0.00     0.000 C 
BRANCH  11  12
ATOM     12  C   UNL     1      39.106  56.537   2.220  1.00  0.00     0.000 C 
BRANCH  12  13
ATOM     13  C   UNL     1      38.875  57.796   1.360  1.00  0.00     0.006 C 
BRANCH  13  14
ATOM     14  C   UNL     1      40.157  58.413   0.783  1.00  0.00     0.053 C 
BRANCH  14  15
ATOM     15  C   UNL     1      40.286  58.150  -0.686  1.00  0.00     0.041 C 
ATOM     16  O   UNL     1      41.423  58.036  -1.215  1.00  0.00    -0.550 OA
ATOM     17  O   UNL     1      39.146  58.054  -1.476  1.00  0.00    -0.550 OA
ENDBRANCH  14  15
ENDBRANCH  13  14
ENDBRANCH  12  13
ENDBRANCH  11  12
ENDBRANCH  10  11
ENDBRANCH   9  10
ENDBRANCH   8   9
ENDBRANCH   7   8
ENDBRANCH   6   7
ENDBRANCH   5   6
ENDBRANCH   4   5
ENDBRANCH   3   4
ENDBRANCH   2   3
ENDBRANCH   1   2
BRANCH   1  18
ATOM     18  C   UNL     1      39.706  63.189   8.297  1.00  0.00     0.000 C 
BRANCH  18  19
ATOM     19  C   UNL     1      41.077  63.838   8.553  1.00  0.00     0.000 C 
BRANCH  19  20
ATOM     20  C   UNL     1      41.521  64.747   7.396  1.00  0.00     0.000 C 
BRANCH  20  21
ATOM     21  C   UNL     1      40.576  64.686   6.188  1.00  0.00     0.000 C 
BRANCH  21  22
ATOM     22  C   UNL     1      41.184  63.839   5.064  1.00  0.00     0.000 C 
BRANCH  22  23
ATOM     23  C   UNL     1      42.649  63.486   5.370  1.00  0.00     0.000 C 
BRANCH  23  24
ATOM     24  C   UNL     1      42.904  61.968   5.354  1.00  0.00    -0.000 C 
BRANCH  24  25
ATOM     25  C   UNL     1      42.289  61.241   4.139  1.00  0.00    -0.000 C 
BRANCH  25  26
ATOM     26  C   UNL     1      42.320  59.704   4.265  1.00  0.00    -0.000 C 
BRANCH  26  27
ATOM     27  C   UNL     1      40.906  59.098   4.338  1.00  0.00    -0.000 C 
BRANCH  27  28
ATOM     28  C   UNL     1      39.804  60.172   4.360  1.00  0.00    -0.000 C 
BRANCH  28  29
ATOM     29  C   UNL     1      38.544  59.744   5.144  1.00  0.00    -0.000 C 
BRANCH  29  30
ATOM     30  C   UNL     1      38.341  58.221   5.161  1.00  0.00    -0.000 C 
BRANCH  30  31
ATOM     31  C   UNL     1      38.169  57.703   6.595  1.00  0.00    -0.003 C 
ATOM     32  C   UNL     1      37.592  58.782   7.506  1.00  0.00     0.004 C 
ENDBRANCH  30  31
ENDBRANCH  29  30
ENDBRANCH  28  29
ENDBRANCH  27  28
ENDBRANCH  26  27
ENDBRANCH  25  26
ENDBRANCH  24  25
ENDBRANCH  23  24
ENDBRANCH  22  23
ENDBRANCH  21  22
ENDBRANCH  20  21
ENDBRANCH  19  20
ENDBRANCH  18  19
ENDBRANCH   1  18
TORSDOF 28
ENDMDL
MODEL 3
REMARK VINA RESULT:    -4.695      1.507      5.545
REMARK INTER + INTRA:         -17.895
REMARK INTER:                 -12.582
REMARK INTRA:                  -5.313
REMARK UNBOUND:                -5.514
REMARK SMILES CCCCCCCCCCCCCCCCCCCCCCCCCCCCCC(=O)[O-]
REMARK SMILES IDX 16 1 17 2 18 3 19 4 20 5 21 6 22 7 23 8 24 9 25 10 26 11
REMARK SMILES IDX 27 12 28 13 29 14 30 15 31 16 32 17 15 18 14 19 13 20 12 21
REMARK SMILES IDX 11 22 10 23 9 24 8 25 7 26 6 27 5 28 4 29 3 30 2 31 1 32
REMARK H PARENT
REMARK Flexibility Score: inf
ROOT
ATOM      1  C   UNL     1      39.481  64.567   6.504  1.00  0.00     0.000 C 
ENDROOT
BRANCH   1   2
ATOM      2  C   UNL     1      40.581  65.366   5.781  1.00  0.00     0.000 C 
BRANCH   2   3
ATOM      3  C   UNL     1      42.000  64.991   6.247  1.00  0.00     0.000 C 
BRANCH   3   4
ATOM      4  C   UNL     1      42.854  66.227   6.577  1.00  0.00     0.000 C 
BRANCH   4   5
ATOM      5  C   UNL     1      44.030  66.404   5.607  1.00  0.00     0.000 C 
BRANCH   5   6
ATOM      6  C   UNL     1      44.142  65.206   4.653  1.00  0.00     0.000 C 
BRANCH   6   7
ATOM      7  C   UNL     1      45.594  64.898   4.248  1.00  0.00     0.000 C 
BRANCH   7   8
ATOM      8  C   UNL     1      45.867  63.426   3.886  1.00  0.00     0.000 C 
BRANCH   8   9
ATOM      9  C   UNL     1      44.630  62.505   3.900  1.00  0.00     0.000 C 
BRANCH   9  10
ATOM     10  C   UNL     1      44.649  61.394   4.965  1.00  0.00     0.000 C 
BRANCH  10  11
ATOM     11  C   UNL     1      43.358  61.332   5.799  1.00  0.00     0.000 C 
BRANCH  11  12
ATOM     12  C   UNL     1      42.092  61.578   4.960  1.00  0.00     0.000 C 
BRANCH  12  13
ATOM     13  C   UNL     1      41.302  60.312   4.567  1.00  0.00     0.006 C 
BRANCH  13  14
ATOM     14  C   UNL     1      39.834  60.569   4.199  1.00  0.00     0.053 C 
BRANCH  14  15
ATOM     15  C   UNL     1      39.627  60.569   2.716  1.00  0.00     0.041 C 
ATOM     16  O   UNL     1      38.599  60.040   2.217  1.00  0.00    -0.550 OA
ATOM     17  O   UNL     1      40.584  61.135   1.882  1.00  0.00    -0.550 OA
ENDBRANCH  14  15
ENDBRANCH  13  14
ENDBRANCH  12  13
ENDBRANCH  11  12
ENDBRANCH  10  11
ENDBRANCH   9  10
ENDBRANCH   8   9
ENDBRANCH   7   8
ENDBRANCH   6   7
ENDBRANCH   5   6
ENDBRANCH   4   5
ENDBRANCH   3   4
ENDBRANCH   2   3
ENDBRANCH   1   2
BRANCH   1  18
ATOM     18  C   UNL     1      39.465  64.707   8.037  1.00  0.00     0.000 C 
BRANCH  18  19
ATOM     19  C   UNL     1      39.750  63.383   8.765  1.00  0.00     0.000 C 
BRANCH  19  20
ATOM     20  C   UNL     1      39.945  62.209   7.793  1.00  0.00     0.000 C 
BRANCH  20  21
ATOM     21  C   UNL     1      40.523  60.958   8.470  1.00  0.00     0.000 C 
BRANCH  21  22
ATOM     22  C   UNL     1      39.755  59.703   8.040  1.00  0.00     0.000 C 
BRANCH  22  23
ATOM     23  C   UNL     1      40.574  58.432   8.318  1.00  0.00     0.000 C 
BRANCH  23  24
ATOM     24  C   UNL     1      42.074  58.623   8.024  1.00  0.00    -0.000 C 
BRANCH  24  25
ATOM     25  C   UNL     1      42.634  57.651   6.964  1.00  0.00    -0.000 C 
BRANCH  25  26
ATOM     26  C   UNL     1      42.085  56.216   7.099  1.00  0.00    -0.000 C 
BRANCH  26  27
ATOM     27  C   UNL     1      41.738  55.595   5.733  1.00  0.00    -0.000 C 
BRANCH  27  28
ATOM     28  C   UNL     1      41.911  56.590   4.571  1.00  0.00    -0.000 C 
BRANCH  28  29
ATOM     29  C   UNL     1      42.673  56.001   3.364  1.00  0.00    -0.000 C 
BRANCH  29  30
ATOM     30  C   UNL     1      44.089  56.578   3.213  1.00  0.00    -0.000 C 
BRANCH  30  31
ATOM     31  C   UNL     1      44.091  58.098   3.424  1.00  0.00    -0.003 C 
ATOM     32  C   UNL     1      43.595  58.829   2.180  1.00  0.00     0.004 C 
ENDBRANCH  30  31
ENDBRANCH  29  30
ENDBRANCH  28  29
ENDBRANCH  27  28
ENDBRANCH  26  27
ENDBRANCH  25  26
ENDBRANCH  24  25
ENDBRANCH  23  24
ENDBRANCH  22  23
ENDBRANCH  21  22
ENDBRANCH  20  21
ENDBRANCH  19  20
ENDBRANCH  18  19
ENDBRANCH   1  18
TORSDOF 28
ENDMDL
MODEL 4
REMARK VINA RESULT:    -4.651      2.227      6.135
REMARK INTER + INTRA:         -17.779
REMARK INTER:                 -10.993
REMARK INTRA:                  -6.785
REMARK UNBOUND:                -5.514
REMARK SMILES CCCCCCCCCCCCCCCCCCCCCCCCCCCCCC(=O)[O-]
REMARK SMILES IDX 16 1 17 2 18 3 19 4 20 5 21 6 22 7 23 8 24 9 25 10 26 11
REMARK SMILES IDX 27 12 28 13 29 14 30 15 31 16 32 17 15 18 14 19 13 20 12 21
REMARK SMILES IDX 11 22 10 23 9 24 8 25 7 26 6 27 5 28 4 29 3 30 2 31 1 32
REMARK H PARENT
REMARK Flexibility Score: inf
ROOT
ATOM      1  C   UNL     1      42.564  59.626   3.930  1.00  0.00     0.000 C 
ENDROOT
BRANCH   1   2
ATOM      2  C   UNL     1      43.740  59.192   4.824  1.00  0.00     0.000 C 
BRANCH   2   3
ATOM      3  C   UNL     1      43.781  57.673   5.067  1.00  0.00     0.000 C 
BRANCH   3   4
ATOM      4  C   UNL     1      42.973  56.890   4.020  1.00  0.00     0.000 C 
BRANCH   4   5
ATOM      5  C   UNL     1      42.130  55.770   4.646  1.00  0.00     0.000 C 
BRANCH   5   6
ATOM      6  C   UNL     1      40.796  55.604   3.903  1.00  0.00     0.000 C 
BRANCH   6   7
ATOM      7  C   UNL     1      39.737  54.861   4.735  1.00  0.00     0.000 C 
BRANCH   7   8
ATOM      8  C   UNL     1      38.278  55.235   4.410  1.00  0.00     0.000 C 
BRANCH   8   9
ATOM      9  C   UNL     1      38.077  56.014   3.095  1.00  0.00     0.000 C 
BRANCH   9  10
ATOM     10  C   UNL     1      36.939  57.051   3.111  1.00  0.00     0.000 C 
BRANCH  10  11
ATOM     11  C   UNL     1      37.261  58.317   2.299  1.00  0.00     0.000 C 
BRANCH  11  12
ATOM     12  C   UNL     1      38.254  58.055   1.151  1.00  0.00     0.000 C 
BRANCH  12  13
ATOM     13  C   UNL     1      39.536  58.913   1.178  1.00  0.00     0.006 C 
BRANCH  13  14
ATOM     14  C   UNL     1      40.840  58.106   1.113  1.00  0.00     0.053 C 
BRANCH  14  15
ATOM     15  C   UNL     1      41.903  58.832   0.348  1.00  0.00     0.041 C 
ATOM     16  O   UNL     1      41.596  59.771  -0.434  1.00  0.00    -0.550 OA
ATOM     17  O   UNL     1      43.234  58.455   0.481  1.00  0.00    -0.550 OA
ENDBRANCH  14  15
ENDBRANCH  13  14
ENDBRANCH  12  13
ENDBRANCH  11  12
ENDBRANCH  10  11
ENDBRANCH   9  10
ENDBRANCH   8   9
ENDBRANCH   7   8
ENDBRANCH   6   7
ENDBRANCH   5   6
ENDBRANCH   4   5
ENDBRANCH   3   4
ENDBRANCH   2   3
ENDBRANCH   1   2
BRANCH   1  18
ATOM     18  C   UNL     1      41.754  60.830   4.445  1.00  0.00     0.000 C 
BRANCH  18  19
ATOM     19  C   UNL     1      40.248  60.538   4.557  1.00  0.00     0.000 C 
BRANCH  19  20
ATOM     20  C   UNL     1      39.956  59.054   4.825  1.00  0.00     0.000 C 
BRANCH  20  21
ATOM     21  C   UNL     1      38.673  58.831   5.638  1.00  0.00     0.000 C 
BRANCH  21  22
ATOM     22  C   UNL     1      38.963  57.997   6.892  1.00  0.00     0.000 C 
BRANCH  22  23
ATOM     23  C   UNL     1      40.475  57.796   7.084  1.00  0.00     0.000 C 
BRANCH  23  24
ATOM     24  C   UNL     1      41.022  58.570   8.298  1.00  0.00    -0.000 C 
BRANCH  24  25
ATOM     25  C   UNL     1      42.160  59.555   7.954  1.00  0.00    -0.000 C 
BRANCH  25  26
ATOM     26  C   UNL     1      41.756  61.035   8.112  1.00  0.00    -0.000 C 
BRANCH  26  27
ATOM     27  C   UNL     1      40.231  61.213   8.226  1.00  0.00    -0.000 C 
BRANCH  27  28
ATOM     28  C   UNL     1      39.814  62.691   8.332  1.00  0.00    -0.000 C 
BRANCH  28  29
ATOM     29  C   UNL     1      40.980  63.634   8.702  1.00  0.00    -0.000 C 
BRANCH  29  30
ATOM     30  C   UNL     1      41.254  64.694   7.625  1.00  0.00    -0.000 C 
BRANCH  30  31
ATOM     31  C   UNL     1      40.226  64.607   6.489  1.00  0.00    -0.003 C 
ATOM     32  C   UNL     1      40.889  64.205   5.174  1.00  0.00     0.004 C 
ENDBRANCH  30  31
ENDBRANCH  29  30
ENDBRANCH  28  29
ENDBRANCH  27  28
ENDBRANCH  26  27
ENDBRANCH  25  26
ENDBRANCH  24  25
ENDBRANCH  23  24
ENDBRANCH  22  23
ENDBRANCH  21  22
ENDBRANCH  20  21
ENDBRANCH  19  20
ENDBRANCH  18  19
ENDBRANCH   1  18
TORSDOF 28
ENDMDL
MODEL 5
REMARK VINA RESULT:    -4.642      2.865      6.635
REMARK INTER + INTRA:         -17.753
REMARK INTER:                 -11.455
REMARK INTRA:                  -6.298
REMARK UNBOUND:                -5.514
REMARK SMILES CCCCCCCCCCCCCCCCCCCCCCCCCCCCCC(=O)[O-]
REMARK SMILES IDX 16 1 17 2 18 3 19 4 20 5 21 6 22 7 23 8 24 9 25 10 26 11
REMARK SMILES IDX 27 12 28 13 29 14 30 15 31 16 32 17 15 18 14 19 13 20 12 21
REMARK SMILES IDX 11 22 10 23 9 24 8 25 7 26 6 27 5 28 4 29 3 30 2 31 1 32
REMARK H PARENT
REMARK Flexibility Score: inf
ROOT
ATOM      1  C   UNL     1      40.882  61.753   3.188  1.00  0.00     0.000 C 
ENDROOT
BRANCH   1   2
ATOM      2  C   UNL     1      41.140  62.185   4.644  1.00  0.00     0.000 C 
BRANCH   2   3
ATOM      3  C   UNL     1      42.581  62.672   4.879  1.00  0.00     0.000 C 
BRANCH   3   4
ATOM      4  C   UNL     1      43.617  61.823   4.123  1.00  0.00     0.000 C 
BRANCH   4   5
ATOM      5  C   UNL     1      44.193  60.692   4.987  1.00  0.00     0.000 C 
BRANCH   5   6
ATOM      6  C   UNL     1      43.791  59.317   4.434  1.00  0.00     0.000 C 
BRANCH   6   7
ATOM      7  C   UNL     1      42.701  58.630   5.274  1.00  0.00     0.000 C 
BRANCH   7   8
ATOM      8  C   UNL     1      42.480  59.240   6.672  1.00  0.00     0.000 C 
BRANCH   8   9
ATOM      9  C   UNL     1      41.494  58.471   7.575  1.00  0.00     0.000 C 
BRANCH   9  10
ATOM     10  C   UNL     1      40.482  59.345   8.338  1.00  0.00     0.000 C 
BRANCH  10  11
ATOM     11  C   UNL     1      40.854  60.838   8.346  1.00  0.00     0.000 C 
BRANCH  11  12
ATOM     12  C   UNL     1      39.675  61.749   7.956  1.00  0.00     0.000 C 
BRANCH  12  13
ATOM     13  C   UNL     1      39.671  63.143   8.618  1.00  0.00     0.006 C 
BRANCH  13  14
ATOM     14  C   UNL     1      41.037  63.843   8.629  1.00  0.00     0.053 C 
BRANCH  14  15
ATOM     15  C   UNL     1      41.157  64.841   7.518  1.00  0.00     0.041 C 
ATOM     16  O   UNL     1      40.199  65.023   6.720  1.00  0.00    -0.550 OA
ATOM     17  O   UNL     1      42.338  65.553   7.350  1.00  0.00    -0.550 OA
ENDBRANCH  14  15
ENDBRANCH  13  14
ENDBRANCH  12  13
ENDBRANCH  11  12
ENDBRANCH  10  11
ENDBRANCH   9  10
ENDBRANCH   8   9
ENDBRANCH   7   8
ENDBRANCH   6   7
ENDBRANCH   5   6
ENDBRANCH   4   5
ENDBRANCH   3   4
ENDBRANCH   2   3
ENDBRANCH   1   2
BRANCH   1  18
ATOM     18  C   UNL     1      40.374  60.310   3.011  1.00  0.00     0.000 C 
BRANCH  18  19
ATOM     19  C   UNL     1      38.907  60.241   2.556  1.00  0.00     0.000 C 
BRANCH  19  20
ATOM     20  C   UNL     1      38.016  59.492   3.559  1.00  0.00     0.000 C 
BRANCH  20  21
ATOM     21  C   UNL     1      38.637  59.397   4.959  1.00  0.00     0.000 C 
BRANCH  21  22
ATOM     22  C   UNL     1      38.315  58.044   5.606  1.00  0.00     0.000 C 
BRANCH  22  23
ATOM     23  C   UNL     1      38.438  56.902   4.585  1.00  0.00     0.000 C 
BRANCH  23  24
ATOM     24  C   UNL     1      39.888  56.406   4.428  1.00  0.00    -0.000 C 
BRANCH  24  25
ATOM     25  C   UNL     1      40.489  56.656   3.029  1.00  0.00    -0.000 C 
BRANCH  25  26
ATOM     26  C   UNL     1      39.639  56.068   1.884  1.00  0.00    -0.000 C 
BRANCH  26  27
ATOM     27  C   UNL     1      39.402  57.087   0.753  1.00  0.00    -0.000 C 
BRANCH  27  28
ATOM     28  C   UNL     1      40.668  57.346  -0.083  1.00  0.00    -0.000 C 
BRANCH  28  29
ATOM     29  C   UNL     1      40.990  58.846  -0.265  1.00  0.00    -0.000 C 
BRANCH  29  30
ATOM     30  C   UNL     1      42.481  59.108  -0.529  1.00  0.00    -0.000 C 
BRANCH  30  31
ATOM     31  C   UNL     1      43.199  59.556   0.751  1.00  0.00    -0.003 C 
ATOM     32  C   UNL     1      44.406  60.432   0.429  1.00  0.00     0.004 C 
ENDBRANCH  30  31
ENDBRANCH  29  30
ENDBRANCH  28  29
ENDBRANCH  27  28
ENDBRANCH  26  27
ENDBRANCH  25  26
ENDBRANCH  24  25
ENDBRANCH  23  24
ENDBRANCH  22  23
ENDBRANCH  21  22
ENDBRANCH  20  21
ENDBRANCH  19  20
ENDBRANCH  18  19
ENDBRANCH   1  18
TORSDOF 28
ENDMDL
MODEL 6
REMARK VINA RESULT:    -4.640      2.238      5.576
REMARK INTER + INTRA:         -17.749
REMARK INTER:                 -12.077
REMARK INTRA:                  -5.672
REMARK UNBOUND:                -5.514
REMARK SMILES CCCCCCCCCCCCCCCCCCCCCCCCCCCCCC(=O)[O-]
REMARK SMILES IDX 16 1 17 2 18 3 19 4 20 5 21 6 22 7 23 8 24 9 25 10 26 11
REMARK SMILES IDX 27 12 28 13 29 14 30 15 31 16 32 17 15 18 14 19 13 20 12 21
REMARK SMILES IDX 11 22 10 23 9 24 8 25 7 26 6 27 5 28 4 29 3 30 2 31 1 32
REMARK H PARENT
REMARK Flexibility Score: inf
ROOT
ATOM      1  C   UNL     1      40.057  64.414   6.513  1.00  0.00     0.000 C 
ENDROOT
BRANCH   1   2
ATOM      2  C   UNL     1      40.956  64.455   5.263  1.00  0.00     0.000 C 
BRANCH   2   3
ATOM      3  C   UNL     1      42.444  64.229   5.585  1.00  0.00     0.000 C 
BRANCH   3   4
ATOM      4  C   UNL     1      42.984  62.925   4.975  1.00  0.00     0.000 C 
BRANCH   4   5
ATOM      5  C   UNL     1      42.715  61.704   5.866  1.00  0.00     0.000 C 
BRANCH   5   6
ATOM      6  C   UNL     1      42.004  60.594   5.079  1.00  0.00     0.000 C 
BRANCH   6   7
ATOM      7  C   UNL     1      40.629  61.029   4.543  1.00  0.00     0.000 C 
BRANCH   7   8
ATOM      8  C   UNL     1      40.522  61.091   3.007  1.00  0.00     0.000 C 
BRANCH   8   9
ATOM      9  C   UNL     1      41.824  60.773   2.245  1.00  0.00     0.000 C 
BRANCH   9  10
ATOM     10  C   UNL     1      41.791  59.493   1.390  1.00  0.00     0.000 C 
BRANCH  10  11
ATOM     11  C   UNL     1      40.402  59.192   0.802  1.00  0.00     0.000 C 
BRANCH  11  12
ATOM     12  C   UNL     1      40.471  58.412  -0.524  1.00  0.00     0.000 C 
BRANCH  12  13
ATOM     13  C   UNL     1      39.139  57.792  -0.996  1.00  0.00     0.006 C 
BRANCH  13  14
ATOM     14  C   UNL     1      38.147  57.486   0.135  1.00  0.00     0.053 C 
BRANCH  14  15
ATOM     15  C   UNL     1      36.991  58.438   0.131  1.00  0.00     0.041 C 
ATOM     16  O   UNL     1      36.537  58.883  -0.956  1.00  0.00    -0.550 OA
ATOM     17  O   UNL     1      36.431  58.854   1.332  1.00  0.00    -0.550 OA
ENDBRANCH  14  15
ENDBRANCH  13  14
ENDBRANCH  12  13
ENDBRANCH  11  12
ENDBRANCH  10  11
ENDBRANCH   9  10
ENDBRANCH   8   9
ENDBRANCH   7   8
ENDBRANCH   6   7
ENDBRANCH   5   6
ENDBRANCH   4   5
ENDBRANCH   3   4
ENDBRANCH   2   3
ENDBRANCH   1   2
BRANCH   1  18
ATOM     18  C   UNL     1      40.794  64.555   7.858  1.00  0.00     0.000 C 
BRANCH  18  19
ATOM     19  C   UNL     1      40.681  63.299   8.740  1.00  0.00     0.000 C 
BRANCH  19  20
ATOM     20  C   UNL     1      39.756  62.235   8.129  1.00  0.00     0.000 C 
BRANCH  20  21
ATOM     21  C   UNL     1      40.228  60.801   8.403  1.00  0.00     0.000 C 
BRANCH  21  22
ATOM     22  C   UNL     1      39.333  59.786   7.681  1.00  0.00     0.000 C 
BRANCH  22  23
ATOM     23  C   UNL     1      39.895  58.361   7.814  1.00  0.00     0.000 C 
BRANCH  23  24
ATOM     24  C   UNL     1      41.325  58.344   8.385  1.00  0.00    -0.000 C 
BRANCH  24  25
ATOM     25  C   UNL     1      42.361  57.665   7.463  1.00  0.00    -0.000 C 
BRANCH  25  26
ATOM     26  C   UNL     1      42.078  56.168   7.223  1.00  0.00    -0.000 C 
BRANCH  26  27
ATOM     27  C   UNL     1      42.519  55.711   5.820  1.00  0.00    -0.000 C 
BRANCH  27  28
ATOM     28  C   UNL     1      42.470  56.849   4.785  1.00  0.00    -0.000 C 
BRANCH  28  29
ATOM     29  C   UNL     1      41.382  56.656   3.708  1.00  0.00    -0.000 C 
BRANCH  29  30
ATOM     30  C   UNL     1      40.095  57.438   4.013  1.00  0.00    -0.000 C 
BRANCH  30  31
ATOM     31  C   UNL     1      39.067  56.553   4.730  1.00  0.00    -0.003 C 
ATOM     32  C   UNL     1      37.745  57.290   4.926  1.00  0.00     0.004 C 
ENDBRANCH  30  31
ENDBRANCH  29  30
ENDBRANCH  28  29
ENDBRANCH  27  28
ENDBRANCH  26  27
ENDBRANCH  25  26
ENDBRANCH  24  25
ENDBRANCH  23  24
ENDBRANCH  22  23
ENDBRANCH  21  22
ENDBRANCH  20  21
ENDBRANCH  19  20
ENDBRANCH  18  19
ENDBRANCH   1  18
TORSDOF 28
ENDMDL
MODEL 7
REMARK VINA RESULT:    -4.638      2.200      3.693
REMARK INTER + INTRA:         -17.745
REMARK INTER:                 -11.828
REMARK INTRA:                  -5.917
REMARK UNBOUND:                -5.514
REMARK SMILES CCCCCCCCCCCCCCCCCCCCCCCCCCCCCC(=O)[O-]
REMARK SMILES IDX 16 1 17 2 18 3 19 4 20 5 21 6 22 7 23 8 24 9 25 10 26 11
REMARK SMILES IDX 27 12 28 13 29 14 30 15 31 16 32 17 15 18 14 19 13 20 12 21
REMARK SMILES IDX 11 22 10 23 9 24 8 25 7 26 6 27 5 28 4 29 3 30 2 31 1 32
REMARK H PARENT
REMARK Flexibility Score: inf
ROOT
ATOM      1  C   UNL     1      40.350  62.381   8.709  1.00  0.00     0.000 C 
ENDROOT
BRANCH   1   2
ATOM      2  C   UNL     1      39.822  61.118   8.003  1.00  0.00     0.000 C 
BRANCH   2   3
ATOM      3  C   UNL     1      40.613  59.850   8.371  1.00  0.00     0.000 C 
BRANCH   3   4
ATOM      4  C   UNL     1      39.873  58.561   7.976  1.00  0.00     0.000 C 
BRANCH   4   5
ATOM      5  C   UNL     1      40.828  57.380   7.752  1.00  0.00     0.000 C 
BRANCH   5   6
ATOM      6  C   UNL     1      42.286  57.858   7.672  1.00  0.00     0.000 C 
BRANCH   6   7
ATOM      7  C   UNL     1      43.094  57.132   6.583  1.00  0.00     0.000 C 
BRANCH   7   8
ATOM      8  C   UNL     1      42.529  55.761   6.164  1.00  0.00     0.000 C 
BRANCH   8   9
ATOM      9  C   UNL     1      41.896  55.713   4.758  1.00  0.00     0.000 C 
BRANCH   9  10
ATOM     10  C   UNL     1      40.443  55.206   4.707  1.00  0.00     0.000 C 
BRANCH  10  11
ATOM     11  C   UNL     1      39.561  55.992   3.723  1.00  0.00     0.000 C 
BRANCH  11  12
ATOM     12  C   UNL     1      38.401  56.728   4.418  1.00  0.00     0.000 C 
BRANCH  12  13
ATOM     13  C   UNL     1      37.484  57.547   3.485  1.00  0.00     0.006 C 
BRANCH  13  14
ATOM     14  C   UNL     1      37.611  57.188   1.998  1.00  0.00     0.053 C 
BRANCH  14  15
ATOM     15  C   UNL     1      37.455  58.393   1.122  1.00  0.00     0.041 C 
ATOM     16  O   UNL     1      37.145  59.507   1.622  1.00  0.00    -0.550 OA
ATOM     17  O   UNL     1      37.629  58.279  -0.252  1.00  0.00    -0.550 OA
ENDBRANCH  14  15
ENDBRANCH  13  14
ENDBRANCH  12  13
ENDBRANCH  11  12
ENDBRANCH  10  11
ENDBRANCH   9  10
ENDBRANCH   8   9
ENDBRANCH   7   8
ENDBRANCH   6   7
ENDBRANCH   5   6
ENDBRANCH   4   5
ENDBRANCH   3   4
ENDBRANCH   2   3
ENDBRANCH   1   2
BRANCH   1  18
ATOM     18  C   UNL     1      39.388  63.583   8.713  1.00  0.00     0.000 C 
BRANCH  18  19
ATOM     19  C   UNL     1      39.894  64.760   7.862  1.00  0.00     0.000 C 
BRANCH  19  20
ATOM     20  C   UNL     1      41.427  64.853   7.840  1.00  0.00     0.000 C 
BRANCH  20  21
ATOM     21  C   UNL     1      42.006  64.885   6.419  1.00  0.00     0.000 C 
BRANCH  21  22
ATOM     22  C   UNL     1      40.937  64.502   5.388  1.00  0.00     0.000 C 
BRANCH  22  23
ATOM     23  C   UNL     1      41.253  63.141   4.745  1.00  0.00     0.000 C 
BRANCH  23  24
ATOM     24  C   UNL     1      42.651  62.620   5.128  1.00  0.00    -0.000 C 
BRANCH  24  25
ATOM     25  C   UNL     1      42.659  61.167   5.648  1.00  0.00    -0.000 C 
BRANCH  25  26
ATOM     26  C   UNL     1      42.390  60.121   4.547  1.00  0.00    -0.000 C 
BRANCH  26  27
ATOM     27  C   UNL     1      40.944  59.592   4.588  1.00  0.00    -0.000 C 
BRANCH  27  28
ATOM     28  C   UNL     1      40.184  59.849   3.275  1.00  0.00    -0.000 C 
BRANCH  28  29
ATOM     29  C   UNL     1      41.026  60.582   2.209  1.00  0.00    -0.000 C 
BRANCH  29  30
ATOM     30  C   UNL     1      41.257  59.736   0.947  1.00  0.00    -0.000 C 
BRANCH  30  31
ATOM     31  C   UNL     1      41.126  58.238   1.254  1.00  0.00    -0.003 C 
ATOM     32  C   UNL     1      42.497  57.586   1.415  1.00  0.00     0.004 C 
ENDBRANCH  30  31
ENDBRANCH  29  30
ENDBRANCH  28  29
ENDBRANCH  27  28
ENDBRANCH  26  27
ENDBRANCH  25  26
ENDBRANCH  24  25
ENDBRANCH  23  24
ENDBRANCH  22  23
ENDBRANCH  21  22
ENDBRANCH  20  21
ENDBRANCH  19  20
ENDBRANCH  18  19
ENDBRANCH   1  18
TORSDOF 28
ENDMDL
MODEL 8
REMARK VINA RESULT:    -4.619      2.127      5.593
REMARK INTER + INTRA:         -17.694
REMARK INTER:                 -11.588
REMARK INTRA:                  -6.106
REMARK UNBOUND:                -5.514
REMARK SMILES CCCCCCCCCCCCCCCCCCCCCCCCCCCCCC(=O)[O-]
REMARK SMILES IDX 16 1 17 2 18 3 19 4 20 5 21 6 22 7 23 8 24 9 25 10 26 11
REMARK SMILES IDX 27 12 28 13 29 14 30 15 31 16 32 17 15 18 14 19 13 20 12 21
REMARK SMILES IDX 11 22 10 23 9 24 8 25 7 26 6 27 5 28 4 29 3 30 2 31 1 32
REMARK H PARENT
REMARK Flexibility Score: inf
ROOT
ATOM      1  C   UNL     1      41.506  65.121   6.548  1.00  0.00     0.000 C 
ENDROOT
BRANCH   1   2
ATOM      2  C   UNL     1      39.985  64.883   6.493  1.00  0.00     0.000 C 
BRANCH   2   3
ATOM      3  C   UNL     1      39.348  64.748   7.887  1.00  0.00     0.000 C 
BRANCH   3   4
ATOM      4  C   UNL     1      39.990  63.625   8.719  1.00  0.00     0.000 C 
BRANCH   4   5
ATOM      5  C   UNL     1      39.726  62.233   8.129  1.00  0.00     0.000 C 
BRANCH   5   6
ATOM      6  C   UNL     1      40.909  61.290   8.393  1.00  0.00     0.000 C 
BRANCH   6   7
ATOM      7  C   UNL     1      40.489  59.812   8.476  1.00  0.00     0.000 C 
BRANCH   7   8
ATOM      8  C   UNL     1      41.649  58.803   8.390  1.00  0.00     0.000 C 
BRANCH   8   9
ATOM      9  C   UNL     1      41.228  57.320   8.338  1.00  0.00     0.000 C 
BRANCH   9  10
ATOM     10  C   UNL     1      41.968  56.461   7.297  1.00  0.00     0.000 C 
BRANCH  10  11
ATOM     11  C   UNL     1      43.110  57.212   6.592  1.00  0.00     0.000 C 
BRANCH  11  12
ATOM     12  C   UNL     1      43.326  56.744   5.141  1.00  0.00     0.000 C 
BRANCH  12  13
ATOM     13  C   UNL     1      44.119  57.717   4.244  1.00  0.00     0.006 C 
BRANCH  13  14
ATOM     14  C   UNL     1      43.694  57.709   2.769  1.00  0.00     0.053 C 
BRANCH  14  15
ATOM     15  C   UNL     1      44.032  56.411   2.103  1.00  0.00     0.041 C 
ATOM     16  O   UNL     1      43.128  55.712   1.574  1.00  0.00    -0.550 OA
ATOM     17  O   UNL     1      45.347  55.961   2.088  1.00  0.00    -0.550 OA
ENDBRANCH  14  15
ENDBRANCH  13  14
ENDBRANCH  12  13
ENDBRANCH  11  12
ENDBRANCH  10  11
ENDBRANCH   9  10
ENDBRANCH   8   9
ENDBRANCH   7   8
ENDBRANCH   6   7
ENDBRANCH   5   6
ENDBRANCH   4   5
ENDBRANCH   3   4
ENDBRANCH   2   3
ENDBRANCH   1   2
BRANCH   1  18
ATOM     18  C   UNL     1      42.356  64.141   5.716  1.00  0.00     0.000 C 
BRANCH  18  19
ATOM     19  C   UNL     1      41.511  63.078   4.993  1.00  0.00     0.000 C 
BRANCH  19  20
ATOM     20  C   UNL     1      42.219  61.717   4.920  1.00  0.00     0.000 C 
BRANCH  20  21
ATOM     21  C   UNL     1      41.492  60.710   4.016  1.00  0.00     0.000 C 
BRANCH  21  22
ATOM     22  C   UNL     1      40.705  59.696   4.855  1.00  0.00     0.000 C 
BRANCH  22  23
ATOM     23  C   UNL     1      39.270  60.187   5.109  1.00  0.00     0.000 C 
BRANCH  23  24
ATOM     24  C   UNL     1      38.251  59.032   5.146  1.00  0.00    -0.000 C 
BRANCH  24  25
ATOM     25  C   UNL     1      38.782  57.748   5.820  1.00  0.00    -0.000 C 
BRANCH  25  26
ATOM     26  C   UNL     1      38.669  56.497   4.926  1.00  0.00    -0.000 C 
BRANCH  26  27
ATOM     27  C   UNL     1      39.901  56.316   4.020  1.00  0.00    -0.000 C 
BRANCH  27  28
ATOM     28  C   UNL     1      39.561  56.449   2.525  1.00  0.00    -0.000 C 
BRANCH  28  29
ATOM     29  C   UNL     1      40.213  57.676   1.852  1.00  0.00    -0.000 C 
BRANCH  29  30
ATOM     30  C   UNL     1      39.272  58.386   0.866  1.00  0.00    -0.000 C 
BRANCH  30  31
ATOM     31  C   UNL     1      38.492  59.511   1.560  1.00  0.00    -0.003 C 
ATOM     32  C   UNL     1      37.034  59.119   1.778  1.00  0.00     0.004 C 
ENDBRANCH  30  31
ENDBRANCH  29  30
ENDBRANCH  28  29
ENDBRANCH  27  28
ENDBRANCH  26  27
ENDBRANCH  25  26
ENDBRANCH  24  25
ENDBRANCH  23  24
ENDBRANCH  22  23
ENDBRANCH  21  22
ENDBRANCH  20  21
ENDBRANCH  19  20
ENDBRANCH  18  19
ENDBRANCH   1  18
TORSDOF 28
ENDMDL
MODEL 9
REMARK VINA RESULT:    -4.602      3.199      6.511
REMARK INTER + INTRA:         -17.648
REMARK INTER:                 -11.471
REMARK INTRA:                  -6.177
REMARK UNBOUND:                -5.514
REMARK SMILES CCCCCCCCCCCCCCCCCCCCCCCCCCCCCC(=O)[O-]
REMARK SMILES IDX 16 1 17 2 18 3 19 4 20 5 21 6 22 7 23 8 24 9 25 10 26 11
REMARK SMILES IDX 27 12 28 13 29 14 30 15 31 16 32 17 15 18 14 19 13 20 12 21
REMARK SMILES IDX 11 22 10 23 9 24 8 25 7 26 6 27 5 28 4 29 3 30 2 31 1 32
REMARK H PARENT
REMARK Flexibility Score: inf
ROOT
ATOM      1  C   UNL     1      38.521  60.051   6.605  1.00  0.00     0.000 C 
ENDROOT
BRANCH   1   2
ATOM      2  C   UNL     1      38.080  58.675   7.139  1.00  0.00     0.000 C 
BRANCH   2   3
ATOM      3  C   UNL     1      38.099  57.578   6.060  1.00  0.00     0.000 C 
BRANCH   3   4
ATOM      4  C   UNL     1      38.994  57.946   4.865  1.00  0.00     0.000 C 
BRANCH   4   5
ATOM      5  C   UNL     1      38.432  57.435   3.531  1.00  0.00     0.000 C 
BRANCH   5   6
ATOM      6  C   UNL     1      37.779  58.576   2.736  1.00  0.00     0.000 C 
BRANCH   6   7
ATOM      7  C   UNL     1      38.452  59.937   2.982  1.00  0.00     0.000 C 
BRANCH   7   8
ATOM      8  C   UNL     1      39.516  60.331   1.940  1.00  0.00     0.000 C 
BRANCH   8   9
ATOM      9  C   UNL     1      40.866  60.795   2.523  1.00  0.00     0.000 C 
BRANCH   9  10
ATOM     10  C   UNL     1      40.873  61.056   4.040  1.00  0.00     0.000 C 
BRANCH  10  11
ATOM     11  C   UNL     1      40.883  62.552   4.398  1.00  0.00     0.000 C 
BRANCH  11  12
ATOM     12  C   UNL     1      42.159  62.979   5.146  1.00  0.00     0.000 C 
BRANCH  12  13
ATOM     13  C   UNL     1      41.959  64.060   6.228  1.00  0.00     0.006 C 
BRANCH  13  14
ATOM     14  C   UNL     1      40.515  64.561   6.366  1.00  0.00     0.053 C 
BRANCH  14  15
ATOM     15  C   UNL     1      40.068  64.575   7.796  1.00  0.00     0.041 C 
ATOM     16  O   UNL     1      38.978  65.119   8.117  1.00  0.00    -0.550 OA
ATOM     17  O   UNL     1      40.869  64.006   8.779  1.00  0.00    -0.550 OA
ENDBRANCH  14  15
ENDBRANCH  13  14
ENDBRANCH  12  13
ENDBRANCH  11  12
ENDBRANCH  10  11
ENDBRANCH   9  10
ENDBRANCH   8   9
ENDBRANCH   7   8
ENDBRANCH   6   7
ENDBRANCH   5   6
ENDBRANCH   4   5
ENDBRANCH   3   4
ENDBRANCH   2   3
ENDBRANCH   1   2
BRANCH   1  18
ATOM     18  C   UNL     1      39.261  60.944   7.618  1.00  0.00     0.000 C 
BRANCH  18  19
ATOM     19  C   UNL     1      40.385  60.204   8.362  1.00  0.00     0.000 C 
BRANCH  19  20
ATOM     20  C   UNL     1      41.767  60.821   8.102  1.00  0.00     0.000 C 
BRANCH  20  21
ATOM     21  C   UNL     1      42.753  59.836   7.456  1.00  0.00     0.000 C 
BRANCH  21  22
ATOM     22  C   UNL     1      42.002  58.725   6.713  1.00  0.00     0.000 C 
BRANCH  22  23
ATOM     23  C   UNL     1      42.591  57.344   7.045  1.00  0.00     0.000 C 
BRANCH  23  24
ATOM     24  C   UNL     1      41.968  56.219   6.197  1.00  0.00    -0.000 C 
BRANCH  24  25
ATOM     25  C   UNL     1      42.914  55.651   5.117  1.00  0.00    -0.000 C 
BRANCH  25  26
ATOM     26  C   UNL     1      43.341  56.696   4.067  1.00  0.00    -0.000 C 
BRANCH  26  27
ATOM     27  C   UNL     1      42.134  57.306   3.330  1.00  0.00    -0.000 C 
BRANCH  27  28
ATOM     28  C   UNL     1      42.063  56.874   1.854  1.00  0.00    -0.000 C 
BRANCH  28  29
ATOM     29  C   UNL     1      42.517  57.972   0.869  1.00  0.00    -0.000 C 
BRANCH  29  30
ATOM     30  C   UNL     1      41.576  58.119  -0.337  1.00  0.00    -0.000 C 
BRANCH  30  31
ATOM     31  C   UNL     1      40.262  57.361  -0.106  1.00  0.00    -0.003 C 
ATOM     32  C   UNL     1      39.135  57.937  -0.960  1.00  0.00     0.004 C 
ENDBRANCH  30  31
ENDBRANCH  29  30
ENDBRANCH  28  29
ENDBRANCH  27  28
ENDBRANCH  26  27
ENDBRANCH  25  26
ENDBRANCH  24  25
ENDBRANCH  23  24
ENDBRANCH  22  23
ENDBRANCH  21  22
ENDBRANCH  20  21
ENDBRANCH  19  20
ENDBRANCH  18  19
ENDBRANCH   1  18
TORSDOF 28
ENDMDL
