MODEL 1
REMARK VINA RESULT:    -4.771      0.000      0.000
REMARK INTER + INTRA:         -15.314
REMARK INTER:                 -12.021
REMARK INTRA:                  -3.293
REMARK UNBOUND:                -3.293
REMARK SMILES CCCCCCCCCCCCCCCCCCCCCCCCCCCC(=O)[O-]
REMARK SMILES IDX 15 1 16 2 17 3 18 4 19 5 20 6 21 7 22 8 23 9 24 10 25 11
REMARK SMILES IDX 26 12 27 13 28 14 29 15 30 16 14 17 13 18 12 19 11 20 10 21
REMARK SMILES IDX 9 22 8 23 7 24 6 25 5 26 4 27 3 28 2 29 1 30
REMARK H PARENT
REMARK Flexibility Score: inf
ROOT
ATOM      1  C   UNL     1       8.077  -6.277  30.964  1.00  0.00     0.000 C 
ENDROOT
BRANCH   1   2
ATOM      2  C   UNL     1       7.840  -5.802  29.515  1.00  0.00     0.000 C 
BRANCH   2   3
ATOM      3  C   UNL     1       6.413  -5.285  29.246  1.00  0.00     0.000 C 
BRANCH   3   4
ATOM      4  C   UNL     1       6.196  -4.637  27.868  1.00  0.00     0.000 C 
BRANCH   4   5
ATOM      5  C   UNL     1       7.514  -4.370  27.120  1.00  0.00     0.000 C 
BRANCH   5   6
ATOM      6  C   UNL     1       7.301  -4.008  25.642  1.00  0.00     0.000 C 
BRANCH   6   7
ATOM      7  C   UNL     1       8.185  -2.841  25.175  1.00  0.00     0.000 C 
BRANCH   7   8
ATOM      8  C   UNL     1       8.615  -2.991  23.698  1.00  0.00     0.000 C 
BRANCH   8   9
ATOM      9  C   UNL     1       9.779  -2.066  23.303  1.00  0.00     0.000 C 
BRANCH   9  10
ATOM     10  C   UNL     1       9.452  -0.561  23.380  1.00  0.00     0.000 C 
BRANCH  10  11
ATOM     11  C   UNL     1      10.675   0.364  23.545  1.00  0.00     0.000 C 
BRANCH  11  12
ATOM     12  C   UNL     1      11.721   0.276  22.420  1.00  0.00     0.006 C 
BRANCH  12  13
ATOM     13  C   UNL     1      13.034  -0.379  22.873  1.00  0.00     0.053 C 
BRANCH  13  14
ATOM     14  C   UNL     1      13.469  -1.418  21.887  1.00  0.00     0.041 C 
ATOM     15  O   UNL     1      13.118  -2.619  22.037  1.00  0.00    -0.550 OA
ATOM     16  O   UNL     1      14.225  -1.053  20.780  1.00  0.00    -0.550 OA
ENDBRANCH  13  14
ENDBRANCH  12  13
ENDBRANCH  11  12
ENDBRANCH  10  11
ENDBRANCH   9  10
ENDBRANCH   8   9
ENDBRANCH   7   8
ENDBRANCH   6   7
ENDBRANCH   5   6
ENDBRANCH   4   5
ENDBRANCH   3   4
ENDBRANCH   2   3
ENDBRANCH   1   2
BRANCH   1  17
ATOM     17  C   UNL     1       7.692  -5.212  32.009  1.00  0.00     0.000 C 
BRANCH  17  18
ATOM     18  C   UNL     1       6.722  -5.743  33.075  1.00  0.00     0.000 C 
BRANCH  18  19
ATOM     19  C   UNL     1       5.248  -5.651  32.644  1.00  0.00     0.000 C 
BRANCH  19  20
ATOM     20  C   UNL     1       4.577  -7.033  32.529  1.00  0.00     0.000 C 
BRANCH  20  21
ATOM     21  C   UNL     1       5.329  -8.052  31.647  1.00  0.00     0.000 C 
BRANCH  21  22
ATOM     22  C   UNL     1       4.748  -8.244  30.234  1.00  0.00    -0.000 C 
BRANCH  22  23
ATOM     23  C   UNL     1       5.604  -9.173  29.362  1.00  0.00    -0.000 C 
BRANCH  23  24
ATOM     24  C   UNL     1       5.607  -8.712  27.896  1.00  0.00    -0.000 C 
BRANCH  24  25
ATOM     25  C   UNL     1       7.028  -8.556  27.332  1.00  0.00    -0.000 C 
BRANCH  25  26
ATOM     26  C   UNL     1       7.029  -8.181  25.840  1.00  0.00    -0.000 C 
BRANCH  26  27
ATOM     27  C   UNL     1       5.806  -7.340  25.439  1.00  0.00    -0.000 C 
BRANCH  27  28
ATOM     28  C   UNL     1       5.466  -7.470  23.946  1.00  0.00    -0.000 C 
BRANCH  28  29
ATOM     29  C   UNL     1       5.850  -6.196  23.183  1.00  0.00    -0.003 C 
ATOM     30  C   UNL     1       5.683  -6.385  21.677  1.00  0.00     0.004 C 
ENDBRANCH  28  29
ENDBRANCH  27  28
ENDBRANCH  26  27
ENDBRANCH  25  26
ENDBRANCH  24  25
ENDBRANCH  23  24
ENDBRANCH  22  23
ENDBRANCH  21  22
ENDBRANCH  20  21
ENDBRANCH  19  20
ENDBRANCH  18  19
ENDBRANCH  17  18
ENDBRANCH   1  17
TORSDOF 26
ENDMDL
MODEL 2
REMARK VINA RESULT:    -4.662      2.826      7.465
REMARK INTER + INTRA:         -15.041
REMARK INTER:                 -11.185
REMARK INTRA:                  -3.856
REMARK UNBOUND:                -3.293
REMARK SMILES CCCCCCCCCCCCCCCCCCCCCCCCCCCC(=O)[O-]
REMARK SMILES IDX 15 1 16 2 17 3 18 4 19 5 20 6 21 7 22 8 23 9 24 10 25 11
REMARK SMILES IDX 26 12 27 13 28 14 29 15 30 16 14 17 13 18 12 19 11 20 10 21
REMARK SMILES IDX 9 22 8 23 7 24 6 25 5 26 4 27 3 28 2 29 1 30
REMARK H PARENT
REMARK Flexibility Score: inf
ROOT
ATOM      1  C   UNL     1       7.500  -5.495  32.374  1.00  0.00     0.000 C 
ENDROOT
BRANCH   1   2
ATOM      2  C   UNL     1       5.986  -5.351  32.111  1.00  0.00     0.000 C 
BRANCH   2   3
ATOM      3  C   UNL     1       5.102  -6.240  33.010  1.00  0.00     0.000 C 
BRANCH   3   4
ATOM      4  C   UNL     1       4.602  -7.541  32.361  1.00  0.00     0.000 C 
BRANCH   4   5
ATOM      5  C   UNL     1       4.746  -7.538  30.829  1.00  0.00     0.000 C 
BRANCH   5   6
ATOM      6  C   UNL     1       5.550  -8.735  30.301  1.00  0.00     0.000 C 
BRANCH   6   7
ATOM      7  C   UNL     1       4.847  -9.471  29.149  1.00  0.00     0.000 C 
BRANCH   7   8
ATOM      8  C   UNL     1       3.316  -9.532  29.345  1.00  0.00     0.000 C 
BRANCH   8   9
ATOM      9  C   UNL     1       2.525  -8.907  28.183  1.00  0.00     0.000 C 
BRANCH   9  10
ATOM     10  C   UNL     1       3.379  -8.078  27.203  1.00  0.00     0.000 C 
BRANCH  10  11
ATOM     11  C   UNL     1       3.391  -8.596  25.750  1.00  0.00     0.000 C 
BRANCH  11  12
ATOM     12  C   UNL     1       3.194  -7.520  24.668  1.00  0.00     0.006 C 
BRANCH  12  13
ATOM     13  C   UNL     1       4.189  -7.649  23.506  1.00  0.00     0.053 C 
BRANCH  13  14
ATOM     14  C   UNL     1       4.312  -6.349  22.774  1.00  0.00     0.041 C 
ATOM     15  O   UNL     1       5.169  -6.217  21.860  1.00  0.00    -0.550 OA
ATOM     16  O   UNL     1       3.452  -5.300  23.071  1.00  0.00    -0.550 OA
ENDBRANCH  13  14
ENDBRANCH  12  13
ENDBRANCH  11  12
ENDBRANCH  10  11
ENDBRANCH   9  10
ENDBRANCH   8   9
ENDBRANCH   7   8
ENDBRANCH   6   7
ENDBRANCH   5   6
ENDBRANCH   4   5
ENDBRANCH   3   4
ENDBRANCH   2   3
ENDBRANCH   1   2
BRANCH   1  17
ATOM     17  C   UNL     1       8.209  -6.354  31.309  1.00  0.00     0.000 C 
BRANCH  17  18
ATOM     18  C   UNL     1       7.949  -5.865  29.876  1.00  0.00     0.000 C 
BRANCH  18  19
ATOM     19  C   UNL     1       9.003  -6.362  28.872  1.00  0.00     0.000 C 
BRANCH  19  20
ATOM     20  C   UNL     1       8.449  -7.433  27.913  1.00  0.00     0.000 C 
BRANCH  20  21
ATOM     21  C   UNL     1       6.982  -7.227  27.482  1.00  0.00     0.000 C 
BRANCH  21  22
ATOM     22  C   UNL     1       6.792  -6.694  26.050  1.00  0.00    -0.000 C 
BRANCH  22  23
ATOM     23  C   UNL     1       5.876  -5.463  25.992  1.00  0.00    -0.000 C 
BRANCH  23  24
ATOM     24  C   UNL     1       6.235  -4.453  27.093  1.00  0.00    -0.000 C 
BRANCH  24  25
ATOM     25  C   UNL     1       7.442  -3.579  26.719  1.00  0.00    -0.000 C 
BRANCH  25  26
ATOM     26  C   UNL     1       7.535  -3.324  25.204  1.00  0.00    -0.000 C 
BRANCH  26  27
ATOM     27  C   UNL     1       8.853  -2.645  24.798  1.00  0.00    -0.000 C 
BRANCH  27  28
ATOM     28  C   UNL     1       8.798  -2.052  23.381  1.00  0.00    -0.000 C 
BRANCH  28  29
ATOM     29  C   UNL     1       8.927  -0.524  23.420  1.00  0.00    -0.003 C 
ATOM     30  C   UNL     1      10.262  -0.070  22.836  1.00  0.00     0.004 C 
ENDBRANCH  28  29
ENDBRANCH  27  28
ENDBRANCH  26  27
ENDBRANCH  25  26
ENDBRANCH  24  25
ENDBRANCH  23  24
ENDBRANCH  22  23
ENDBRANCH  21  22
ENDBRANCH  20  21
ENDBRANCH  19  20
ENDBRANCH  18  19
ENDBRANCH  17  18
ENDBRANCH   1  17
TORSDOF 26
ENDMDL
MODEL 3
REMARK VINA RESULT:    -4.621      4.199      7.778
REMARK INTER + INTRA:         -14.937
REMARK INTER:                 -11.564
REMARK INTRA:                  -3.373
REMARK UNBOUND:                -3.293
REMARK SMILES CCCCCCCCCCCCCCCCCCCCCCCCCCCC(=O)[O-]
REMARK SMILES IDX 15 1 16 2 17 3 18 4 19 5 20 6 21 7 22 8 23 9 24 10 25 11
REMARK SMILES IDX 26 12 27 13 28 14 29 15 30 16 14 17 13 18 12 19 11 20 10 21
REMARK SMILES IDX 9 22 8 23 7 24 6 25 5 26 4 27 3 28 2 29 1 30
REMARK H PARENT
REMARK Flexibility Score: inf
ROOT
ATOM      1  C   UNL     1       8.219 -10.097  22.874  1.00  0.00     0.000 C 
ENDROOT
BRANCH   1   2
ATOM      2  C   UNL     1       7.543  -9.131  21.878  1.00  0.00     0.000 C 
BRANCH   2   3
ATOM      3  C   UNL     1       6.649  -9.826  20.832  1.00  0.00     0.000 C 
BRANCH   3   4
ATOM      4  C   UNL     1       5.178  -9.376  20.820  1.00  0.00     0.000 C 
BRANCH   4   5
ATOM      5  C   UNL     1       4.428  -9.752  22.109  1.00  0.00     0.000 C 
BRANCH   5   6
ATOM      6  C   UNL     1       3.629  -8.581  22.700  1.00  0.00     0.000 C 
BRANCH   6   7
ATOM      7  C   UNL     1       3.436  -7.423  21.708  1.00  0.00     0.000 C 
BRANCH   7   8
ATOM      8  C   UNL     1       4.056  -6.104  22.223  1.00  0.00     0.000 C 
BRANCH   8   9
ATOM      9  C   UNL     1       5.590  -6.069  22.118  1.00  0.00     0.000 C 
BRANCH   9  10
ATOM     10  C   UNL     1       6.319  -5.913  23.468  1.00  0.00     0.000 C 
BRANCH  10  11
ATOM     11  C   UNL     1       5.401  -5.902  24.707  1.00  0.00     0.000 C 
BRANCH  11  12
ATOM     12  C   UNL     1       6.084  -6.284  26.032  1.00  0.00     0.006 C 
BRANCH  12  13
ATOM     13  C   UNL     1       5.880  -5.235  27.135  1.00  0.00     0.053 C 
BRANCH  13  14
ATOM     14  C   UNL     1       7.117  -4.412  27.311  1.00  0.00     0.041 C 
ATOM     15  O   UNL     1       8.190  -4.955  27.689  1.00  0.00    -0.550 OA
ATOM     16  O   UNL     1       7.097  -3.054  27.016  1.00  0.00    -0.550 OA
ENDBRANCH  13  14
ENDBRANCH  12  13
ENDBRANCH  11  12
ENDBRANCH  10  11
ENDBRANCH   9  10
ENDBRANCH   8   9
ENDBRANCH   7   8
ENDBRANCH   6   7
ENDBRANCH   5   6
ENDBRANCH   4   5
ENDBRANCH   3   4
ENDBRANCH   2   3
ENDBRANCH   1   2
BRANCH   1  17
ATOM     17  C   UNL     1       9.729  -9.832  23.026  1.00  0.00     0.000 C 
BRANCH  17  18
ATOM     18  C   UNL     1      10.188  -9.813  24.492  1.00  0.00     0.000 C 
BRANCH  18  19
ATOM     19  C   UNL     1       9.034 -10.037  25.485  1.00  0.00     0.000 C 
BRANCH  19  20
ATOM     20  C   UNL     1       9.180  -9.191  26.764  1.00  0.00     0.000 C 
BRANCH  20  21
ATOM     21  C   UNL     1       7.875  -8.979  27.559  1.00  0.00     0.000 C 
BRANCH  21  22
ATOM     22  C   UNL     1       6.782 -10.036  27.311  1.00  0.00    -0.000 C 
BRANCH  22  23
ATOM     23  C   UNL     1       5.546  -9.828  28.197  1.00  0.00    -0.000 C 
BRANCH  23  24
ATOM     24  C   UNL     1       5.612  -8.482  28.935  1.00  0.00    -0.000 C 
BRANCH  24  25
ATOM     25  C   UNL     1       5.559  -8.646  30.462  1.00  0.00    -0.000 C 
BRANCH  25  26
ATOM     26  C   UNL     1       4.624  -7.623  31.131  1.00  0.00    -0.000 C 
BRANCH  26  27
ATOM     27  C   UNL     1       5.190  -7.078  32.452  1.00  0.00    -0.000 C 
BRANCH  27  28
ATOM     28  C   UNL     1       5.579  -5.594  32.358  1.00  0.00    -0.000 C 
BRANCH  28  29
ATOM     29  C   UNL     1       7.098  -5.417  32.475  1.00  0.00    -0.003 C 
ATOM     30  C   UNL     1       7.805  -5.875  31.202  1.00  0.00     0.004 C 
ENDBRANCH  28  29
ENDBRANCH  27  28
ENDBRANCH  26  27
ENDBRANCH  25  26
ENDBRANCH  24  25
ENDBRANCH  23  24
ENDBRANCH  22  23
ENDBRANCH  21  22
ENDBRANCH  20  21
ENDBRANCH  19  20
ENDBRANCH  18  19
ENDBRANCH  17  18
ENDBRANCH   1  17
TORSDOF 26
ENDMDL
MODEL 4
REMARK VINA RESULT:    -4.556      5.336     10.731
REMARK INTER + INTRA:         -14.773
REMARK INTER:                 -12.904
REMARK INTRA:                  -1.869
REMARK UNBOUND:                -3.293
REMARK SMILES CCCCCCCCCCCCCCCCCCCCCCCCCCCC(=O)[O-]
REMARK SMILES IDX 15 1 16 2 17 3 18 4 19 5 20 6 21 7 22 8 23 9 24 10 25 11
REMARK SMILES IDX 26 12 27 13 28 14 29 15 30 16 14 17 13 18 12 19 11 20 10 21
REMARK SMILES IDX 9 22 8 23 7 24 6 25 5 26 4 27 3 28 2 29 1 30
REMARK H PARENT
REMARK Flexibility Score: inf
ROOT
ATOM      1  C   UNL     1       8.608  -2.845  24.097  1.00  0.00     0.000 C 
ENDROOT
BRANCH   1   2
ATOM      2  C   UNL     1       7.891  -2.954  25.459  1.00  0.00     0.000 C 
BRANCH   2   3
ATOM      3  C   UNL     1       6.918  -4.146  25.567  1.00  0.00     0.000 C 
BRANCH   3   4
ATOM      4  C   UNL     1       6.534  -4.554  26.999  1.00  0.00     0.000 C 
BRANCH   4   5
ATOM      5  C   UNL     1       7.640  -4.249  28.024  1.00  0.00     0.000 C 
BRANCH   5   6
ATOM      6  C   UNL     1       8.858  -5.174  27.884  1.00  0.00     0.000 C 
BRANCH   6   7
ATOM      7  C   UNL     1       8.729  -6.467  28.706  1.00  0.00     0.000 C 
BRANCH   7   8
ATOM      8  C   UNL     1       8.423  -7.694  27.818  1.00  0.00     0.000 C 
BRANCH   8   9
ATOM      9  C   UNL     1       7.112  -8.407  28.191  1.00  0.00     0.000 C 
BRANCH   9  10
ATOM     10  C   UNL     1       6.150  -7.565  29.052  1.00  0.00     0.000 C 
BRANCH  10  11
ATOM     11  C   UNL     1       5.665  -8.249  30.347  1.00  0.00     0.000 C 
BRANCH  11  12
ATOM     12  C   UNL     1       5.648  -7.350  31.596  1.00  0.00     0.006 C 
BRANCH  12  13
ATOM     13  C   UNL     1       6.176  -5.935  31.323  1.00  0.00     0.053 C 
BRANCH  13  14
ATOM     14  C   UNL     1       7.384  -5.655  32.161  1.00  0.00     0.041 C 
ATOM     15  O   UNL     1       8.411  -6.378  32.052  1.00  0.00    -0.550 OA
ATOM     16  O   UNL     1       7.392  -4.573  33.031  1.00  0.00    -0.550 OA
ENDBRANCH  13  14
ENDBRANCH  12  13
ENDBRANCH  11  12
ENDBRANCH  10  11
ENDBRANCH   9  10
ENDBRANCH   8   9
ENDBRANCH   7   8
ENDBRANCH   6   7
ENDBRANCH   5   6
ENDBRANCH   4   5
ENDBRANCH   3   4
ENDBRANCH   2   3
ENDBRANCH   1   2
BRANCH   1  17
ATOM     17  C   UNL     1       9.000  -1.397  23.746  1.00  0.00     0.000 C 
BRANCH  17  18
ATOM     18  C   UNL     1      10.348  -1.304  23.013  1.00  0.00     0.000 C 
BRANCH  18  19
ATOM     19  C   UNL     1      11.104  -2.643  22.975  1.00  0.00     0.000 C 
BRANCH  19  20
ATOM     20  C   UNL     1      12.449  -2.543  22.231  1.00  0.00     0.000 C 
BRANCH  20  21
ATOM     21  C   UNL     1      13.120  -3.895  21.910  1.00  0.00     0.000 C 
BRANCH  21  22
ATOM     22  C   UNL     1      13.632  -4.041  20.465  1.00  0.00    -0.000 C 
BRANCH  22  23
ATOM     23  C   UNL     1      14.321  -5.390  20.214  1.00  0.00    -0.000 C 
BRANCH  23  24
ATOM     24  C   UNL     1      14.583  -5.608  18.716  1.00  0.00    -0.000 C 
BRANCH  24  25
ATOM     25  C   UNL     1      13.287  -5.813  17.916  1.00  0.00    -0.000 C 
BRANCH  25  26
ATOM     26  C   UNL     1      13.329  -7.078  17.042  1.00  0.00    -0.000 C 
BRANCH  26  27
ATOM     27  C   UNL     1      14.451  -7.035  15.991  1.00  0.00    -0.000 C 
BRANCH  27  28
ATOM     28  C   UNL     1      13.913  -6.866  14.562  1.00  0.00    -0.000 C 
BRANCH  28  29
ATOM     29  C   UNL     1      14.318  -8.054  13.679  1.00  0.00    -0.003 C 
ATOM     30  C   UNL     1      14.431  -9.336  14.500  1.00  0.00     0.004 C 
ENDBRANCH  28  29
ENDBRANCH  27  28
ENDBRANCH  26  27
ENDBRANCH  25  26
ENDBRANCH  24  25
ENDBRANCH  23  24
ENDBRANCH  22  23
ENDBRANCH  21  22
ENDBRANCH  20  21
ENDBRANCH  19  20
ENDBRANCH  18  19
ENDBRANCH  17  18
ENDBRANCH   1  17
TORSDOF 26
ENDMDL
MODEL 5
REMARK VINA RESULT:    -4.528      3.995      6.803
REMARK INTER + INTRA:         -14.703
REMARK INTER:                 -12.324
REMARK INTRA:                  -2.379
REMARK UNBOUND:                -3.293
REMARK SMILES CCCCCCCCCCCCCCCCCCCCCCCCCCCC(=O)[O-]
REMARK SMILES IDX 15 1 16 2 17 3 18 4 19 5 20 6 21 7 22 8 23 9 24 10 25 11
REMARK SMILES IDX 26 12 27 13 28 14 29 15 30 16 14 17 13 18 12 19 11 20 10 21
REMARK SMILES IDX 9 22 8 23 7 24 6 25 5 26 4 27 3 28 2 29 1 30
REMARK H PARENT
REMARK Flexibility Score: inf
ROOT
ATOM      1  C   UNL     1       7.571  -3.125  26.026  1.00  0.00     0.000 C 
ENDROOT
BRANCH   1   2
ATOM      2  C   UNL     1       8.231  -3.038  24.634  1.00  0.00     0.000 C 
BRANCH   2   3
ATOM      3  C   UNL     1       8.685  -1.619  24.238  1.00  0.00     0.000 C 
BRANCH   3   4
ATOM      4  C   UNL     1       9.685  -1.548  23.071  1.00  0.00     0.000 C 
BRANCH   4   5
ATOM      5  C   UNL     1      10.628  -2.762  23.020  1.00  0.00     0.000 C 
BRANCH   5   6
ATOM      6  C   UNL     1      12.022  -2.414  22.476  1.00  0.00     0.000 C 
BRANCH   6   7
ATOM      7  C   UNL     1      12.875  -3.655  22.167  1.00  0.00     0.000 C 
BRANCH   7   8
ATOM      8  C   UNL     1      13.576  -3.553  20.794  1.00  0.00     0.000 C 
BRANCH   8   9
ATOM      9  C   UNL     1      13.730  -4.909  20.083  1.00  0.00     0.000 C 
BRANCH   9  10
ATOM     10  C   UNL     1      14.617  -4.872  18.823  1.00  0.00     0.000 C 
BRANCH  10  11
ATOM     11  C   UNL     1      13.894  -5.223  17.506  1.00  0.00     0.000 C 
BRANCH  11  12
ATOM     12  C   UNL     1      13.783  -6.727  17.201  1.00  0.00     0.006 C 
BRANCH  12  13
ATOM     13  C   UNL     1      12.779  -7.039  16.082  1.00  0.00     0.053 C 
BRANCH  13  14
ATOM     14  C   UNL     1      13.492  -7.260  14.784  1.00  0.00     0.041 C 
ATOM     15  O   UNL     1      12.861  -7.190  13.696  1.00  0.00    -0.550 OA
ATOM     16  O   UNL     1      14.860  -7.501  14.775  1.00  0.00    -0.550 OA
ENDBRANCH  13  14
ENDBRANCH  12  13
ENDBRANCH  11  12
ENDBRANCH  10  11
ENDBRANCH   9  10
ENDBRANCH   8   9
ENDBRANCH   7   8
ENDBRANCH   6   7
ENDBRANCH   5   6
ENDBRANCH   4   5
ENDBRANCH   3   4
ENDBRANCH   2   3
ENDBRANCH   1   2
BRANCH   1  17
ATOM     17  C   UNL     1       6.935  -4.502  26.297  1.00  0.00     0.000 C 
BRANCH  17  18
ATOM     18  C   UNL     1       6.565  -4.710  27.773  1.00  0.00     0.000 C 
BRANCH  18  19
ATOM     19  C   UNL     1       7.790  -4.710  28.705  1.00  0.00     0.000 C 
BRANCH  19  20
ATOM     20  C   UNL     1       8.874  -5.708  28.258  1.00  0.00     0.000 C 
BRANCH  20  21
ATOM     21  C   UNL     1       8.499  -7.196  28.419  1.00  0.00     0.000 C 
BRANCH  21  22
ATOM     22  C   UNL     1       8.406  -7.991  27.104  1.00  0.00    -0.000 C 
BRANCH  22  23
ATOM     23  C   UNL     1       7.256  -9.008  27.105  1.00  0.00    -0.000 C 
BRANCH  23  24
ATOM     24  C   UNL     1       6.609  -9.111  28.496  1.00  0.00    -0.000 C 
BRANCH  24  25
ATOM     25  C   UNL     1       5.177  -8.554  28.521  1.00  0.00    -0.000 C 
BRANCH  25  26
ATOM     26  C   UNL     1       4.785  -8.006  29.905  1.00  0.00    -0.000 C 
BRANCH  26  27
ATOM     27  C   UNL     1       5.947  -8.049  30.910  1.00  0.00    -0.000 C 
BRANCH  27  28
ATOM     28  C   UNL     1       5.977  -6.818  31.830  1.00  0.00    -0.000 C 
BRANCH  28  29
ATOM     29  C   UNL     1       7.388  -6.222  31.903  1.00  0.00    -0.003 C 
ATOM     30  C   UNL     1       7.393  -4.915  32.692  1.00  0.00     0.004 C 
ENDBRANCH  28  29
ENDBRANCH  27  28
ENDBRANCH  26  27
ENDBRANCH  25  26
ENDBRANCH  24  25
ENDBRANCH  23  24
ENDBRANCH  22  23
ENDBRANCH  21  22
ENDBRANCH  20  21
ENDBRANCH  19  20
ENDBRANCH  18  19
ENDBRANCH  17  18
ENDBRANCH   1  17
TORSDOF 26
ENDMDL
MODEL 6
REMARK VINA RESULT:    -4.500      2.088      6.116
REMARK INTER + INTRA:         -14.633
REMARK INTER:                 -10.952
REMARK INTRA:                  -3.681
REMARK UNBOUND:                -3.293
REMARK SMILES CCCCCCCCCCCCCCCCCCCCCCCCCCCC(=O)[O-]
REMARK SMILES IDX 15 1 16 2 17 3 18 4 19 5 20 6 21 7 22 8 23 9 24 10 25 11
REMARK SMILES IDX 26 12 27 13 28 14 29 15 30 16 14 17 13 18 12 19 11 20 10 21
REMARK SMILES IDX 9 22 8 23 7 24 6 25 5 26 4 27 3 28 2 29 1 30
REMARK H PARENT
REMARK Flexibility Score: inf
ROOT
ATOM      1  C   UNL     1       7.131  -8.611  23.043  1.00  0.00     0.000 C 
ENDROOT
BRANCH   1   2
ATOM      2  C   UNL     1       6.805  -9.368  21.738  1.00  0.00     0.000 C 
BRANCH   2   3
ATOM      3  C   UNL     1       5.665  -8.738  20.911  1.00  0.00     0.000 C 
BRANCH   3   4
ATOM      4  C   UNL     1       5.403  -7.247  21.181  1.00  0.00     0.000 C 
BRANCH   4   5
ATOM      5  C   UNL     1       3.924  -6.945  21.479  1.00  0.00     0.000 C 
BRANCH   5   6
ATOM      6  C   UNL     1       3.732  -5.699  22.355  1.00  0.00     0.000 C 
BRANCH   6   7
ATOM      7  C   UNL     1       3.604  -6.028  23.851  1.00  0.00     0.000 C 
BRANCH   7   8
ATOM      8  C   UNL     1       4.983  -6.204  24.528  1.00  0.00     0.000 C 
BRANCH   8   9
ATOM      9  C   UNL     1       5.775  -4.891  24.652  1.00  0.00     0.000 C 
BRANCH   9  10
ATOM     10  C   UNL     1       6.440  -4.674  26.025  1.00  0.00     0.000 C 
BRANCH  10  11
ATOM     11  C   UNL     1       7.437  -3.499  26.089  1.00  0.00     0.000 C 
BRANCH  11  12
ATOM     12  C   UNL     1       8.226  -3.237  24.795  1.00  0.00     0.006 C 
BRANCH  12  13
ATOM     13  C   UNL     1       8.560  -1.754  24.586  1.00  0.00     0.053 C 
BRANCH  13  14
ATOM     14  C   UNL     1       9.168  -1.538  23.235  1.00  0.00     0.041 C 
ATOM     15  O   UNL     1      10.123  -2.264  22.849  1.00  0.00    -0.550 OA
ATOM     16  O   UNL     1       8.653  -0.566  22.387  1.00  0.00    -0.550 OA
ENDBRANCH  13  14
ENDBRANCH  12  13
ENDBRANCH  11  12
ENDBRANCH  10  11
ENDBRANCH   9  10
ENDBRANCH   8   9
ENDBRANCH   7   8
ENDBRANCH   6   7
ENDBRANCH   5   6
ENDBRANCH   4   5
ENDBRANCH   3   4
ENDBRANCH   2   3
ENDBRANCH   1   2
BRANCH   1  17
ATOM     17  C   UNL     1       6.693  -9.383  24.302  1.00  0.00     0.000 C 
BRANCH  17  18
ATOM     18  C   UNL     1       5.228  -9.843  24.242  1.00  0.00     0.000 C 
BRANCH  18  19
ATOM     19  C   UNL     1       4.509  -9.732  25.598  1.00  0.00     0.000 C 
BRANCH  19  20
ATOM     20  C   UNL     1       5.478  -9.458  26.763  1.00  0.00     0.000 C 
BRANCH  20  21
ATOM     21  C   UNL     1       5.075 -10.091  28.111  1.00  0.00     0.000 C 
BRANCH  21  22
ATOM     22  C   UNL     1       5.693  -9.425  29.354  1.00  0.00    -0.000 C 
BRANCH  22  23
ATOM     23  C   UNL     1       4.728  -8.455  30.049  1.00  0.00    -0.000 C 
BRANCH  23  24
ATOM     24  C   UNL     1       5.347  -7.881  31.333  1.00  0.00    -0.000 C 
BRANCH  24  25
ATOM     25  C   UNL     1       6.794  -7.407  31.127  1.00  0.00    -0.000 C 
BRANCH  25  26
ATOM     26  C   UNL     1       6.891  -5.884  30.930  1.00  0.00    -0.000 C 
BRANCH  26  27
ATOM     27  C   UNL     1       7.477  -5.500  29.562  1.00  0.00    -0.000 C 
BRANCH  27  28
ATOM     28  C   UNL     1       8.655  -6.398  29.152  1.00  0.00    -0.000 C 
BRANCH  28  29
ATOM     29  C   UNL     1       8.515  -6.857  27.695  1.00  0.00    -0.003 C 
ATOM     30  C   UNL     1       8.723  -8.364  27.570  1.00  0.00     0.004 C 
ENDBRANCH  28  29
ENDBRANCH  27  28
ENDBRANCH  26  27
ENDBRANCH  25  26
ENDBRANCH  24  25
ENDBRANCH  23  24
ENDBRANCH  22  23
ENDBRANCH  21  22
ENDBRANCH  20  21
ENDBRANCH  19  20
ENDBRANCH  18  19
ENDBRANCH  17  18
ENDBRANCH   1  17
TORSDOF 26
ENDMDL
MODEL 7
REMARK VINA RESULT:    -4.459      6.348     11.635
REMARK INTER + INTRA:         -14.530
REMARK INTER:                 -12.679
REMARK INTRA:                  -1.851
REMARK UNBOUND:                -3.293
REMARK SMILES CCCCCCCCCCCCCCCCCCCCCCCCCCCC(=O)[O-]
REMARK SMILES IDX 15 1 16 2 17 3 18 4 19 5 20 6 21 7 22 8 23 9 24 10 25 11
REMARK SMILES IDX 26 12 27 13 28 14 29 15 30 16 14 17 13 18 12 19 11 20 10 21
REMARK SMILES IDX 9 22 8 23 7 24 6 25 5 26 4 27 3 28 2 29 1 30
REMARK H PARENT
REMARK Flexibility Score: inf
ROOT
ATOM      1  C   UNL     1      13.179  -2.509  22.379  1.00  0.00     0.000 C 
ENDROOT
BRANCH   1   2
ATOM      2  C   UNL     1      13.131  -0.990  22.112  1.00  0.00     0.000 C 
BRANCH   2   3
ATOM      3  C   UNL     1      11.849  -0.300  22.620  1.00  0.00     0.000 C 
BRANCH   3   4
ATOM      4  C   UNL     1      10.666  -1.240  22.909  1.00  0.00     0.000 C 
BRANCH   4   5
ATOM      5  C   UNL     1       9.352  -0.482  23.167  1.00  0.00     0.000 C 
BRANCH   5   6
ATOM      6  C   UNL     1       8.490  -1.135  24.258  1.00  0.00     0.000 C 
BRANCH   6   7
ATOM      7  C   UNL     1       8.732  -2.647  24.392  1.00  0.00     0.000 C 
BRANCH   7   8
ATOM      8  C   UNL     1       7.566  -3.362  25.112  1.00  0.00     0.000 C 
BRANCH   8   9
ATOM      9  C   UNL     1       7.697  -3.353  26.645  1.00  0.00     0.000 C 
BRANCH   9  10
ATOM     10  C   UNL     1       7.021  -4.546  27.350  1.00  0.00     0.000 C 
BRANCH  10  11
ATOM     11  C   UNL     1       7.487  -4.798  28.798  1.00  0.00     0.000 C 
BRANCH  11  12
ATOM     12  C   UNL     1       7.393  -6.258  29.272  1.00  0.00     0.006 C 
BRANCH  12  13
ATOM     13  C   UNL     1       6.286  -6.480  30.313  1.00  0.00     0.053 C 
BRANCH  13  14
ATOM     14  C   UNL     1       6.653  -5.836  31.613  1.00  0.00     0.041 C 
ATOM     15  O   UNL     1       5.773  -5.245  32.297  1.00  0.00    -0.550 OA
ATOM     16  O   UNL     1       7.954  -5.924  32.092  1.00  0.00    -0.550 OA
ENDBRANCH  13  14
ENDBRANCH  12  13
ENDBRANCH  11  12
ENDBRANCH  10  11
ENDBRANCH   9  10
ENDBRANCH   8   9
ENDBRANCH   7   8
ENDBRANCH   6   7
ENDBRANCH   5   6
ENDBRANCH   4   5
ENDBRANCH   3   4
ENDBRANCH   2   3
ENDBRANCH   1   2
BRANCH   1  17
ATOM     17  C   UNL     1      13.430  -3.330  21.099  1.00  0.00     0.000 C 
BRANCH  17  18
ATOM     18  C   UNL     1      13.599  -4.832  21.375  1.00  0.00     0.000 C 
BRANCH  18  19
ATOM     19  C   UNL     1      14.336  -5.570  20.245  1.00  0.00     0.000 C 
BRANCH  19  20
ATOM     20  C   UNL     1      14.563  -4.683  19.006  1.00  0.00     0.000 C 
BRANCH  20  21
ATOM     21  C   UNL     1      13.889  -5.185  17.712  1.00  0.00     0.000 C 
BRANCH  21  22
ATOM     22  C   UNL     1      12.654  -6.080  17.924  1.00  0.00    -0.000 C 
BRANCH  22  23
ATOM     23  C   UNL     1      12.424  -7.057  16.763  1.00  0.00    -0.000 C 
BRANCH  23  24
ATOM     24  C   UNL     1      12.740  -8.501  17.183  1.00  0.00    -0.000 C 
BRANCH  24  25
ATOM     25  C   UNL     1      14.204  -8.884  16.916  1.00  0.00    -0.000 C 
BRANCH  25  26
ATOM     26  C   UNL     1      14.349  -9.870  15.744  1.00  0.00    -0.000 C 
BRANCH  26  27
ATOM     27  C   UNL     1      14.206  -9.188  14.374  1.00  0.00    -0.000 C 
BRANCH  27  28
ATOM     28  C   UNL     1      15.254  -8.085  14.153  1.00  0.00    -0.000 C 
BRANCH  28  29
ATOM     29  C   UNL     1      14.788  -7.093  13.080  1.00  0.00    -0.003 C 
ATOM     30  C   UNL     1      13.313  -6.742  13.258  1.00  0.00     0.004 C 
ENDBRANCH  28  29
ENDBRANCH  27  28
ENDBRANCH  26  27
ENDBRANCH  25  26
ENDBRANCH  24  25
ENDBRANCH  23  24
ENDBRANCH  22  23
ENDBRANCH  21  22
ENDBRANCH  20  21
ENDBRANCH  19  20
ENDBRANCH  18  19
ENDBRANCH  17  18
ENDBRANCH   1  17
TORSDOF 26
ENDMDL
MODEL 8
REMARK VINA RESULT:    -4.426      1.916      5.343
REMARK INTER + INTRA:         -14.446
REMARK INTER:                 -10.274
REMARK INTRA:                  -4.172
REMARK UNBOUND:                -3.293
REMARK SMILES CCCCCCCCCCCCCCCCCCCCCCCCCCCC(=O)[O-]
REMARK SMILES IDX 15 1 16 2 17 3 18 4 19 5 20 6 21 7 22 8 23 9 24 10 25 11
REMARK SMILES IDX 26 12 27 13 28 14 29 15 30 16 14 17 13 18 12 19 11 20 10 21
REMARK SMILES IDX 9 22 8 23 7 24 6 25 5 26 4 27 3 28 2 29 1 30
REMARK H PARENT
REMARK Flexibility Score: inf
ROOT
ATOM      1  C   UNL     1       4.553  -8.969  26.532  1.00  0.00     0.000 C 
ENDROOT
BRANCH   1   2
ATOM      2  C   UNL     1       4.844  -8.824  25.023  1.00  0.00     0.000 C 
BRANCH   2   3
ATOM      3  C   UNL     1       6.302  -9.133  24.629  1.00  0.00     0.000 C 
BRANCH   3   4
ATOM      4  C   UNL     1       6.622  -9.000  23.130  1.00  0.00     0.000 C 
BRANCH   4   5
ATOM      5  C   UNL     1       5.366  -8.783  22.269  1.00  0.00     0.000 C 
BRANCH   5   6
ATOM      6  C   UNL     1       5.496  -7.590  21.310  1.00  0.00     0.000 C 
BRANCH   6   7
ATOM      7  C   UNL     1       5.899  -6.288  22.021  1.00  0.00     0.000 C 
BRANCH   7   8
ATOM      8  C   UNL     1       4.817  -5.809  23.015  1.00  0.00     0.000 C 
BRANCH   8   9
ATOM      9  C   UNL     1       5.396  -5.252  24.327  1.00  0.00     0.000 C 
BRANCH   9  10
ATOM     10  C   UNL     1       6.865  -4.793  24.232  1.00  0.00     0.000 C 
BRANCH  10  11
ATOM     11  C   UNL     1       7.195  -3.499  25.004  1.00  0.00     0.000 C 
BRANCH  11  12
ATOM     12  C   UNL     1       8.628  -2.971  24.816  1.00  0.00     0.006 C 
BRANCH  12  13
ATOM     13  C   UNL     1       8.844  -2.293  23.456  1.00  0.00     0.053 C 
BRANCH  13  14
ATOM     14  C   UNL     1       9.313  -0.884  23.641  1.00  0.00     0.041 C 
ATOM     15  O   UNL     1      10.356  -0.483  23.057  1.00  0.00    -0.550 OA
ATOM     16  O   UNL     1       8.577  -0.003  24.422  1.00  0.00    -0.550 OA
ENDBRANCH  13  14
ENDBRANCH  12  13
ENDBRANCH  11  12
ENDBRANCH  10  11
ENDBRANCH   9  10
ENDBRANCH   8   9
ENDBRANCH   7   8
ENDBRANCH   6   7
ENDBRANCH   5   6
ENDBRANCH   4   5
ENDBRANCH   3   4
ENDBRANCH   2   3
ENDBRANCH   1   2
BRANCH   1  17
ATOM     17  C   UNL     1       5.597  -9.840  27.257  1.00  0.00     0.000 C 
BRANCH  17  18
ATOM     18  C   UNL     1       5.322  -9.973  28.763  1.00  0.00     0.000 C 
BRANCH  18  19
ATOM     19  C   UNL     1       3.849  -9.717  29.129  1.00  0.00     0.000 C 
BRANCH  19  20
ATOM     20  C   UNL     1       3.682  -8.576  30.149  1.00  0.00     0.000 C 
BRANCH  20  21
ATOM     21  C   UNL     1       4.993  -7.882  30.574  1.00  0.00     0.000 C 
BRANCH  21  22
ATOM     22  C   UNL     1       4.986  -7.290  31.996  1.00  0.00    -0.000 C 
BRANCH  22  23
ATOM     23  C   UNL     1       5.444  -5.825  32.030  1.00  0.00    -0.000 C 
BRANCH  23  24
ATOM     24  C   UNL     1       6.754  -5.673  32.817  1.00  0.00    -0.000 C 
BRANCH  24  25
ATOM     25  C   UNL     1       7.988  -6.055  31.984  1.00  0.00    -0.000 C 
BRANCH  25  26
ATOM     26  C   UNL     1       7.887  -5.568  30.528  1.00  0.00    -0.000 C 
BRANCH  26  27
ATOM     27  C   UNL     1       8.242  -6.665  29.511  1.00  0.00    -0.000 C 
BRANCH  27  28
ATOM     28  C   UNL     1       7.678  -6.375  28.111  1.00  0.00    -0.000 C 
BRANCH  28  29
ATOM     29  C   UNL     1       6.774  -5.137  28.130  1.00  0.00    -0.003 C 
ATOM     30  C   UNL     1       5.311  -5.521  27.922  1.00  0.00     0.004 C 
ENDBRANCH  28  29
ENDBRANCH  27  28
ENDBRANCH  26  27
ENDBRANCH  25  26
ENDBRANCH  24  25
ENDBRANCH  23  24
ENDBRANCH  22  23
ENDBRANCH  21  22
ENDBRANCH  20  21
ENDBRANCH  19  20
ENDBRANCH  18  19
ENDBRANCH  17  18
ENDBRANCH   1  17
TORSDOF 26
ENDMDL
MODEL 9
REMARK VINA RESULT:    -4.394      5.868     11.261
REMARK INTER + INTRA:         -14.366
REMARK INTER:                 -12.201
REMARK INTRA:                  -2.165
REMARK UNBOUND:                -3.293
REMARK SMILES CCCCCCCCCCCCCCCCCCCCCCCCCCCC(=O)[O-]
REMARK SMILES IDX 15 1 16 2 17 3 18 4 19 5 20 6 21 7 22 8 23 9 24 10 25 11
REMARK SMILES IDX 26 12 27 13 28 14 29 15 30 16 14 17 13 18 12 19 11 20 10 21
REMARK SMILES IDX 9 22 8 23 7 24 6 25 5 26 4 27 3 28 2 29 1 30
REMARK H PARENT
REMARK Flexibility Score: inf
ROOT
ATOM      1  C   UNL     1      13.149  -0.820  22.649  1.00  0.00     0.000 C 
ENDROOT
BRANCH   1   2
ATOM      2  C   UNL     1      11.947   0.058  22.242  1.00  0.00     0.000 C 
BRANCH   2   3
ATOM      3  C   UNL     1      10.941   0.318  23.381  1.00  0.00     0.000 C 
BRANCH   3   4
ATOM      4  C   UNL     1       9.502  -0.153  23.109  1.00  0.00     0.000 C 
BRANCH   4   5
ATOM      5  C   UNL     1       9.432  -1.616  22.640  1.00  0.00     0.000 C 
BRANCH   5   6
ATOM      6  C   UNL     1       9.300  -2.612  23.802  1.00  0.00     0.000 C 
BRANCH   6   7
ATOM      7  C   UNL     1       8.210  -2.218  24.812  1.00  0.00     0.000 C 
BRANCH   7   8
ATOM      8  C   UNL     1       7.554  -3.452  25.471  1.00  0.00     0.000 C 
BRANCH   8   9
ATOM      9  C   UNL     1       7.413  -3.327  26.998  1.00  0.00     0.000 C 
BRANCH   9  10
ATOM     10  C   UNL     1       7.908  -4.555  27.787  1.00  0.00     0.000 C 
BRANCH  10  11
ATOM     11  C   UNL     1       6.911  -5.110  28.825  1.00  0.00     0.000 C 
BRANCH  11  12
ATOM     12  C   UNL     1       5.534  -5.505  28.264  1.00  0.00     0.006 C 
BRANCH  12  13
ATOM     13  C   UNL     1       5.460  -6.978  27.838  1.00  0.00     0.053 C 
BRANCH  13  14
ATOM     14  C   UNL     1       5.007  -7.091  26.416  1.00  0.00     0.041 C 
ATOM     15  O   UNL     1       4.333  -8.090  26.045  1.00  0.00    -0.550 OA
ATOM     16  O   UNL     1       5.290  -6.075  25.513  1.00  0.00    -0.550 OA
ENDBRANCH  13  14
ENDBRANCH  12  13
ENDBRANCH  11  12
ENDBRANCH  10  11
ENDBRANCH   9  10
ENDBRANCH   8   9
ENDBRANCH   7   8
ENDBRANCH   6   7
ENDBRANCH   5   6
ENDBRANCH   4   5
ENDBRANCH   3   4
ENDBRANCH   2   3
ENDBRANCH   1   2
BRANCH   1  17
ATOM     17  C   UNL     1      13.433  -1.945  21.635  1.00  0.00     0.000 C 
BRANCH  17  18
ATOM     18  C   UNL     1      12.757  -3.273  22.010  1.00  0.00     0.000 C 
BRANCH  18  19
ATOM     19  C   UNL     1      13.481  -4.500  21.429  1.00  0.00     0.000 C 
BRANCH  19  20
ATOM     20  C   UNL     1      13.844  -4.325  19.943  1.00  0.00     0.000 C 
BRANCH  20  21
ATOM     21  C   UNL     1      14.402  -5.588  19.253  1.00  0.00     0.000 C 
BRANCH  21  22
ATOM     22  C   UNL     1      14.171  -5.656  17.732  1.00  0.00    -0.000 C 
BRANCH  22  23
ATOM     23  C   UNL     1      12.764  -6.150  17.368  1.00  0.00    -0.000 C 
BRANCH  23  24
ATOM     24  C   UNL     1      12.768  -7.656  17.061  1.00  0.00    -0.000 C 
BRANCH  24  25
ATOM     25  C   UNL     1      14.177  -8.190  16.758  1.00  0.00    -0.000 C 
BRANCH  25  26
ATOM     26  C   UNL     1      14.148  -9.477  15.916  1.00  0.00    -0.000 C 
BRANCH  26  27
ATOM     27  C   UNL     1      14.106  -9.196  14.405  1.00  0.00    -0.000 C 
BRANCH  27  28
ATOM     28  C   UNL     1      15.366  -8.471  13.905  1.00  0.00    -0.000 C 
BRANCH  28  29
ATOM     29  C   UNL     1      15.000  -7.159  13.199  1.00  0.00    -0.003 C 
ATOM     30  C   UNL     1      13.524  -6.824  13.392  1.00  0.00     0.004 C 
ENDBRANCH  28  29
ENDBRANCH  27  28
ENDBRANCH  26  27
ENDBRANCH  25  26
ENDBRANCH  24  25
ENDBRANCH  23  24
ENDBRANCH  22  23
ENDBRANCH  21  22
ENDBRANCH  20  21
ENDBRANCH  19  20
ENDBRANCH  18  19
ENDBRANCH  17  18
ENDBRANCH   1  17
TORSDOF 26
ENDMDL
