MODEL 1
REMARK VINA RESULT:    -3.935      0.000      0.000
REMARK INTER + INTRA:          -9.777
REMARK INTER:                  -7.156
REMARK INTRA:                  -2.621
REMARK UNBOUND:                -2.621
REMARK SMILES CCCCCCCCCCCCCCCC(=O)[O-]
REMARK SMILES IDX 9 1 10 2 11 3 12 4 13 5 14 6 15 7 16 8 17 9 18 10 8 11 7 12
REMARK SMILES IDX 6 13 5 14 4 15 3 16 2 17 1 18
REMARK H PARENT
REMARK Flexibility Score: inf
ROOT
ATOM      1  C   UNL     1      95.880   5.080  25.838  1.00  0.00     0.000 C 
ENDROOT
BRANCH   1   2
ATOM      2  C   UNL     1      96.852   5.440  26.971  1.00  0.00     0.000 C 
BRANCH   2   3
ATOM      3  C   UNL     1      98.089   6.162  26.424  1.00  0.00     0.000 C 
BRANCH   3   4
ATOM      4  C   UNL     1      99.372   5.637  27.089  1.00  0.00     0.000 C 
BRANCH   4   5
ATOM      5  C   UNL     1      99.389   4.106  27.218  1.00  0.00     0.000 C 
BRANCH   5   6
ATOM      6  C   UNL     1      99.901   3.411  25.945  1.00  0.00     0.006 C 
BRANCH   6   7
ATOM      7  C   UNL     1      99.343   1.990  25.797  1.00  0.00     0.053 C 
BRANCH   7   8
ATOM      8  C   UNL     1      99.338   1.538  24.368  1.00  0.00     0.041 C 
ATOM      9  O   UNL     1      98.614   0.573  24.009  1.00  0.00    -0.550 OA
ATOM     10  O   UNL     1     100.156   2.167  23.438  1.00  0.00    -0.550 OA
ENDBRANCH   7   8
ENDBRANCH   6   7
ENDBRANCH   5   6
ENDBRANCH   4   5
ENDBRANCH   3   4
ENDBRANCH   2   3
ENDBRANCH   1   2
BRANCH   1  11
ATOM     11  C   UNL     1      96.249   3.764  25.134  1.00  0.00     0.000 C 
BRANCH  11  12
ATOM     12  C   UNL     1      96.483   3.947  23.624  1.00  0.00    -0.000 C 
BRANCH  12  13
ATOM     13  C   UNL     1      97.744   4.773  23.320  1.00  0.00    -0.000 C 
BRANCH  13  14
ATOM     14  C   UNL     1      97.434   6.061  22.535  1.00  0.00    -0.000 C 
BRANCH  14  15
ATOM     15  C   UNL     1      95.938   6.218  22.222  1.00  0.00    -0.000 C 
BRANCH  15  16
ATOM     16  C   UNL     1      95.290   7.379  22.996  1.00  0.00    -0.000 C 
BRANCH  16  17
ATOM     17  C   UNL     1      96.321   8.226  23.759  1.00  0.00    -0.003 C 
ATOM     18  C   UNL     1      95.803   8.715  25.111  1.00  0.00     0.004 C 
ENDBRANCH  16  17
ENDBRANCH  15  16
ENDBRANCH  14  15
ENDBRANCH  13  14
ENDBRANCH  12  13
ENDBRANCH  11  12
ENDBRANCH   1  11
TORSDOF 14
ENDMDL
MODEL 2
REMARK VINA RESULT:    -3.933      2.250      5.064
REMARK INTER + INTRA:          -9.774
REMARK INTER:                  -7.354
REMARK INTRA:                  -2.420
REMARK UNBOUND:                -2.621
REMARK SMILES CCCCCCCCCCCCCCCC(=O)[O-]
REMARK SMILES IDX 9 1 10 2 11 3 12 4 13 5 14 6 15 7 16 8 17 9 18 10 8 11 7 12
REMARK SMILES IDX 6 13 5 14 4 15 3 16 2 17 1 18
REMARK H PARENT
REMARK Flexibility Score: inf
ROOT
ATOM      1  C   UNL     1      97.313   5.253  27.448  1.00  0.00     0.000 C 
ENDROOT
BRANCH   1   2
ATOM      2  C   UNL     1      98.021   6.362  26.655  1.00  0.00     0.000 C 
BRANCH   2   3
ATOM      3  C   UNL     1      97.212   6.750  25.412  1.00  0.00     0.000 C 
BRANCH   3   4
ATOM      4  C   UNL     1      95.766   6.240  25.515  1.00  0.00     0.000 C 
BRANCH   4   5
ATOM      5  C   UNL     1      95.086   6.105  24.143  1.00  0.00     0.000 C 
BRANCH   5   6
ATOM      6  C   UNL     1      95.694   7.044  23.087  1.00  0.00     0.006 C 
BRANCH   6   7
ATOM      7  C   UNL     1      95.914   6.336  21.743  1.00  0.00     0.053 C 
BRANCH   7   8
ATOM      8  C   UNL     1      97.276   6.613  21.184  1.00  0.00     0.041 C 
ATOM      9  O   UNL     1      97.413   6.933  19.974  1.00  0.00    -0.550 OA
ATOM     10  O   UNL     1      98.398   6.487  21.994  1.00  0.00    -0.550 OA
ENDBRANCH   7   8
ENDBRANCH   6   7
ENDBRANCH   5   6
ENDBRANCH   4   5
ENDBRANCH   3   4
ENDBRANCH   2   3
ENDBRANCH   1   2
BRANCH   1  11
ATOM     11  C   UNL     1      98.119   3.944  27.487  1.00  0.00     0.000 C 
BRANCH  11  12
ATOM     12  C   UNL     1      99.634   4.179  27.361  1.00  0.00    -0.000 C 
BRANCH  12  13
ATOM     13  C   UNL     1     100.288   3.261  26.315  1.00  0.00    -0.000 C 
BRANCH  13  14
ATOM     14  C   UNL     1     100.830   4.036  25.101  1.00  0.00    -0.000 C 
BRANCH  14  15
ATOM     15  C   UNL     1      99.821   4.104  23.944  1.00  0.00    -0.000 C 
BRANCH  15  16
ATOM     16  C   UNL     1      98.836   2.922  23.949  1.00  0.00    -0.000 C 
BRANCH  16  17
ATOM     17  C   UNL     1      97.369   3.377  23.912  1.00  0.00    -0.003 C 
ATOM     18  C   UNL     1      96.388   2.247  24.223  1.00  0.00     0.004 C 
ENDBRANCH  16  17
ENDBRANCH  15  16
ENDBRANCH  14  15
ENDBRANCH  13  14
ENDBRANCH  12  13
ENDBRANCH  11  12
ENDBRANCH   1  11
TORSDOF 14
ENDMDL
MODEL 3
REMARK VINA RESULT:    -3.910      2.602      6.243
REMARK INTER + INTRA:          -9.732
REMARK INTER:                  -7.695
REMARK INTRA:                  -2.036
REMARK UNBOUND:                -2.621
REMARK SMILES CCCCCCCCCCCCCCCC(=O)[O-]
REMARK SMILES IDX 9 1 10 2 11 3 12 4 13 5 14 6 15 7 16 8 17 9 18 10 8 11 7 12
REMARK SMILES IDX 6 13 5 14 4 15 3 16 2 17 1 18
REMARK H PARENT
REMARK Flexibility Score: inf
ROOT
ATOM      1  C   UNL     1     101.771   3.047  25.737  1.00  0.00     0.000 C 
ENDROOT
BRANCH   1   2
ATOM      2  C   UNL     1     100.865   3.929  24.865  1.00  0.00     0.000 C 
BRANCH   2   3
ATOM      3  C   UNL     1      99.696   4.491  25.683  1.00  0.00     0.000 C 
BRANCH   3   4
ATOM      4  C   UNL     1      99.194   3.460  26.707  1.00  0.00     0.000 C 
BRANCH   4   5
ATOM      5  C   UNL     1      97.683   3.566  26.964  1.00  0.00     0.000 C 
BRANCH   5   6
ATOM      6  C   UNL     1      97.058   4.812  26.312  1.00  0.00     0.006 C 
BRANCH   6   7
ATOM      7  C   UNL     1      95.871   4.457  25.407  1.00  0.00     0.053 C 
BRANCH   7   8
ATOM      8  C   UNL     1      96.320   3.881  24.099  1.00  0.00     0.041 C 
ATOM      9  O   UNL     1      96.969   4.587  23.283  1.00  0.00    -0.550 OA
ATOM     10  O   UNL     1      95.994   2.572  23.768  1.00  0.00    -0.550 OA
ENDBRANCH   7   8
ENDBRANCH   6   7
ENDBRANCH   5   6
ENDBRANCH   4   5
ENDBRANCH   3   4
ENDBRANCH   2   3
ENDBRANCH   1   2
BRANCH   1  11
ATOM     11  C   UNL     1     103.209   2.959  25.199  1.00  0.00     0.000 C 
BRANCH  11  12
ATOM     12  C   UNL     1     103.594   1.533  24.769  1.00  0.00    -0.000 C 
BRANCH  12  13
ATOM     13  C   UNL     1     103.012   1.155  23.397  1.00  0.00    -0.000 C 
BRANCH  13  14
ATOM     14  C   UNL     1     102.718  -0.351  23.271  1.00  0.00    -0.000 C 
BRANCH  14  15
ATOM     15  C   UNL     1     101.213  -0.656  23.203  1.00  0.00    -0.000 C 
BRANCH  15  16
ATOM     16  C   UNL     1     100.615  -0.992  24.580  1.00  0.00    -0.000 C 
BRANCH  16  17
ATOM     17  C   UNL     1      99.695   0.118  25.110  1.00  0.00    -0.003 C 
ATOM     18  C   UNL     1      98.999   0.896  23.992  1.00  0.00     0.004 C 
ENDBRANCH  16  17
ENDBRANCH  15  16
ENDBRANCH  14  15
ENDBRANCH  13  14
ENDBRANCH  12  13
ENDBRANCH  11  12
ENDBRANCH   1  11
TORSDOF 14
ENDMDL
MODEL 4
REMARK VINA RESULT:    -3.902      2.522      5.865
REMARK INTER + INTRA:          -9.717
REMARK INTER:                  -7.391
REMARK INTRA:                  -2.327
REMARK UNBOUND:                -2.621
REMARK SMILES CCCCCCCCCCCCCCCC(=O)[O-]
REMARK SMILES IDX 9 1 10 2 11 3 12 4 13 5 14 6 15 7 16 8 17 9 18 10 8 11 7 12
REMARK SMILES IDX 6 13 5 14 4 15 3 16 2 17 1 18
REMARK H PARENT
REMARK Flexibility Score: inf
ROOT
ATOM      1  C   UNL     1     101.618   3.359  26.871  1.00  0.00     0.000 C 
ENDROOT
BRANCH   1   2
ATOM      2  C   UNL     1     101.176   4.500  25.942  1.00  0.00     0.000 C 
BRANCH   2   3
ATOM      3  C   UNL     1      99.725   4.906  26.224  1.00  0.00     0.000 C 
BRANCH   3   4
ATOM      4  C   UNL     1      99.037   3.887  27.146  1.00  0.00     0.000 C 
BRANCH   4   5
ATOM      5  C   UNL     1      97.574   3.626  26.754  1.00  0.00     0.000 C 
BRANCH   5   6
ATOM      6  C   UNL     1      96.814   4.918  26.409  1.00  0.00     0.006 C 
BRANCH   6   7
ATOM      7  C   UNL     1      95.807   4.710  25.271  1.00  0.00     0.053 C 
BRANCH   7   8
ATOM      8  C   UNL     1      96.431   4.030  24.091  1.00  0.00     0.041 C 
ATOM      9  O   UNL     1      97.293   4.628  23.396  1.00  0.00    -0.550 OA
ATOM     10  O   UNL     1      96.037   2.744  23.741  1.00  0.00    -0.550 OA
ENDBRANCH   7   8
ENDBRANCH   6   7
ENDBRANCH   5   6
ENDBRANCH   4   5
ENDBRANCH   3   4
ENDBRANCH   2   3
ENDBRANCH   1   2
BRANCH   1  11
ATOM     11  C   UNL     1     103.129   3.377  27.156  1.00  0.00     0.000 C 
BRANCH  11  12
ATOM     12  C   UNL     1     103.973   3.238  25.877  1.00  0.00    -0.000 C 
BRANCH  12  13
ATOM     13  C   UNL     1     103.859   1.841  25.246  1.00  0.00    -0.000 C 
BRANCH  13  14
ATOM     14  C   UNL     1     103.285   1.880  23.818  1.00  0.00    -0.000 C 
BRANCH  14  15
ATOM     15  C   UNL     1     101.935   1.154  23.703  1.00  0.00    -0.000 C 
BRANCH  15  16
ATOM     16  C   UNL     1     100.797   2.089  23.257  1.00  0.00    -0.000 C 
BRANCH  16  17
ATOM     17  C   UNL     1      99.486   1.825  24.014  1.00  0.00    -0.003 C 
ATOM     18  C   UNL     1      99.632   0.758  25.100  1.00  0.00     0.004 C 
ENDBRANCH  16  17
ENDBRANCH  15  16
ENDBRANCH  14  15
ENDBRANCH  13  14
ENDBRANCH  12  13
ENDBRANCH  11  12
ENDBRANCH   1  11
TORSDOF 14
ENDMDL
MODEL 5
REMARK VINA RESULT:    -3.899      2.984      5.623
REMARK INTER + INTRA:          -9.711
REMARK INTER:                  -7.606
REMARK INTRA:                  -2.105
REMARK UNBOUND:                -2.621
REMARK SMILES CCCCCCCCCCCCCCCC(=O)[O-]
REMARK SMILES IDX 9 1 10 2 11 3 12 4 13 5 14 6 15 7 16 8 17 9 18 10 8 11 7 12
REMARK SMILES IDX 6 13 5 14 4 15 3 16 2 17 1 18
REMARK H PARENT
REMARK Flexibility Score: inf
ROOT
ATOM      1  C   UNL     1      95.978   4.720  25.448  1.00  0.00     0.000 C 
ENDROOT
BRANCH   1   2
ATOM      2  C   UNL     1      95.531   6.179  25.265  1.00  0.00     0.000 C 
BRANCH   2   3
ATOM      3  C   UNL     1      96.707   7.062  24.831  1.00  0.00     0.000 C 
BRANCH   3   4
ATOM      4  C   UNL     1      96.319   7.946  23.634  1.00  0.00     0.000 C 
BRANCH   4   5
ATOM      5  C   UNL     1      95.190   7.336  22.788  1.00  0.00     0.000 C 
BRANCH   5   6
ATOM      6  C   UNL     1      95.715   6.598  21.545  1.00  0.00     0.006 C 
BRANCH   6   7
ATOM      7  C   UNL     1      96.768   7.417  20.787  1.00  0.00     0.053 C 
BRANCH   7   8
ATOM      8  C   UNL     1      96.641   7.251  19.303  1.00  0.00     0.041 C 
ATOM      9  O   UNL     1      95.551   7.502  18.727  1.00  0.00    -0.550 OA
ATOM     10  O   UNL     1      97.722   6.790  18.561  1.00  0.00    -0.550 OA
ENDBRANCH   7   8
ENDBRANCH   6   7
ENDBRANCH   5   6
ENDBRANCH   4   5
ENDBRANCH   3   4
ENDBRANCH   2   3
ENDBRANCH   1   2
BRANCH   1  11
ATOM     11  C   UNL     1      96.066   3.954  24.117  1.00  0.00     0.000 C 
BRANCH  11  12
ATOM     12  C   UNL     1      96.558   2.508  24.300  1.00  0.00    -0.000 C 
BRANCH  12  13
ATOM     13  C   UNL     1      97.367   2.320  25.594  1.00  0.00    -0.000 C 
BRANCH  13  14
ATOM     14  C   UNL     1      98.885   2.263  25.341  1.00  0.00    -0.000 C 
BRANCH  14  15
ATOM     15  C   UNL     1      99.587   3.595  25.650  1.00  0.00    -0.000 C 
BRANCH  15  16
ATOM     16  C   UNL     1     100.510   4.055  24.508  1.00  0.00    -0.000 C 
BRANCH  16  17
ATOM     17  C   UNL     1      99.871   3.872  23.123  1.00  0.00    -0.003 C 
ATOM     18  C   UNL     1      99.116   5.114  22.650  1.00  0.00     0.004 C 
ENDBRANCH  16  17
ENDBRANCH  15  16
ENDBRANCH  14  15
ENDBRANCH  13  14
ENDBRANCH  12  13
ENDBRANCH  11  12
ENDBRANCH   1  11
TORSDOF 14
ENDMDL
MODEL 6
REMARK VINA RESULT:    -3.855      2.123      3.180
REMARK INTER + INTRA:          -9.631
REMARK INTER:                  -7.398
REMARK INTRA:                  -2.233
REMARK UNBOUND:                -2.621
REMARK SMILES CCCCCCCCCCCCCCCC(=O)[O-]
REMARK SMILES IDX 9 1 10 2 11 3 12 4 13 5 14 6 15 7 16 8 17 9 18 10 8 11 7 12
REMARK SMILES IDX 6 13 5 14 4 15 3 16 2 17 1 18
REMARK H PARENT
REMARK Flexibility Score: inf
ROOT
ATOM      1  C   UNL     1      96.142   5.736  22.730  1.00  0.00     0.000 C 
ENDROOT
BRANCH   1   2
ATOM      2  C   UNL     1      95.175   6.016  23.890  1.00  0.00     0.000 C 
BRANCH   2   3
ATOM      3  C   UNL     1      95.913   6.636  25.083  1.00  0.00     0.000 C 
BRANCH   3   4
ATOM      4  C   UNL     1      95.913   5.681  26.287  1.00  0.00     0.000 C 
BRANCH   4   5
ATOM      5  C   UNL     1      97.329   5.371  26.798  1.00  0.00     0.000 C 
BRANCH   5   6
ATOM      6  C   UNL     1      97.954   4.150  26.102  1.00  0.00     0.006 C 
BRANCH   6   7
ATOM      7  C   UNL     1      96.912   3.073  25.774  1.00  0.00     0.053 C 
BRANCH   7   8
ATOM      8  C   UNL     1      97.076   2.543  24.382  1.00  0.00     0.041 C 
ATOM      9  O   UNL     1      96.066   2.278  23.680  1.00  0.00    -0.550 OA
ATOM     10  O   UNL     1      98.348   2.313  23.872  1.00  0.00    -0.550 OA
ENDBRANCH   7   8
ENDBRANCH   6   7
ENDBRANCH   5   6
ENDBRANCH   4   5
ENDBRANCH   3   4
ENDBRANCH   2   3
ENDBRANCH   1   2
BRANCH   1  11
ATOM     11  C   UNL     1      97.532   6.354  22.953  1.00  0.00     0.000 C 
BRANCH  11  12
ATOM     12  C   UNL     1      97.920   7.351  21.846  1.00  0.00    -0.000 C 
BRANCH  12  13
ATOM     13  C   UNL     1      97.632   6.808  20.437  1.00  0.00    -0.000 C 
BRANCH  13  14
ATOM     14  C   UNL     1      97.082   7.886  19.486  1.00  0.00    -0.000 C 
BRANCH  14  15
ATOM     15  C   UNL     1      95.685   7.541  18.945  1.00  0.00    -0.000 C 
BRANCH  15  16
ATOM     16  C   UNL     1      94.612   7.525  20.047  1.00  0.00    -0.000 C 
BRANCH  16  17
ATOM     17  C   UNL     1      94.251   8.935  20.539  1.00  0.00    -0.003 C 
ATOM     18  C   UNL     1      94.563   9.145  22.020  1.00  0.00     0.004 C 
ENDBRANCH  16  17
ENDBRANCH  15  16
ENDBRANCH  14  15
ENDBRANCH  13  14
ENDBRANCH  12  13
ENDBRANCH  11  12
ENDBRANCH   1  11
TORSDOF 14
ENDMDL
MODEL 7
REMARK VINA RESULT:    -3.836      3.021      6.481
REMARK INTER + INTRA:          -9.597
REMARK INTER:                  -7.282
REMARK INTRA:                  -2.315
REMARK UNBOUND:                -2.621
REMARK SMILES CCCCCCCCCCCCCCCC(=O)[O-]
REMARK SMILES IDX 9 1 10 2 11 3 12 4 13 5 14 6 15 7 16 8 17 9 18 10 8 11 7 12
REMARK SMILES IDX 6 13 5 14 4 15 3 16 2 17 1 18
REMARK H PARENT
REMARK Flexibility Score: inf
ROOT
ATOM      1  C   UNL     1     101.296   4.336  26.089  1.00  0.00     0.000 C 
ENDROOT
BRANCH   1   2
ATOM      2  C   UNL     1      99.881   4.579  25.545  1.00  0.00     0.000 C 
BRANCH   2   3
ATOM      3  C   UNL     1      99.829   4.353  24.029  1.00  0.00     0.000 C 
BRANCH   3   4
ATOM      4  C   UNL     1      98.952   3.139  23.684  1.00  0.00     0.000 C 
BRANCH   4   5
ATOM      5  C   UNL     1      97.867   2.872  24.738  1.00  0.00     0.000 C 
BRANCH   5   6
ATOM      6  C   UNL     1      96.443   3.015  24.172  1.00  0.00     0.006 C 
BRANCH   6   7
ATOM      7  C   UNL     1      96.143   4.449  23.717  1.00  0.00     0.053 C 
BRANCH   7   8
ATOM      8  C   UNL     1      96.026   5.389  24.878  1.00  0.00     0.041 C 
ATOM      9  O   UNL     1      95.140   5.210  25.754  1.00  0.00    -0.550 OA
ATOM     10  O   UNL     1      96.880   6.482  24.975  1.00  0.00    -0.550 OA
ENDBRANCH   7   8
ENDBRANCH   6   7
ENDBRANCH   5   6
ENDBRANCH   4   5
ENDBRANCH   3   4
ENDBRANCH   2   3
ENDBRANCH   1   2
BRANCH   1  11
ATOM     11  C   UNL     1     101.602   2.845  26.305  1.00  0.00     0.000 C 
BRANCH  11  12
ATOM     12  C   UNL     1     103.053   2.481  25.945  1.00  0.00    -0.000 C 
BRANCH  12  13
ATOM     13  C   UNL     1     103.382   2.765  24.470  1.00  0.00    -0.000 C 
BRANCH  13  14
ATOM     14  C   UNL     1     102.561   1.895  23.501  1.00  0.00    -0.000 C 
BRANCH  14  15
ATOM     15  C   UNL     1     103.116   0.468  23.370  1.00  0.00    -0.000 C 
BRANCH  15  16
ATOM     16  C   UNL     1     102.059  -0.607  23.676  1.00  0.00    -0.000 C 
BRANCH  16  17
ATOM     17  C   UNL     1     100.629  -0.044  23.679  1.00  0.00    -0.003 C 
ATOM     18  C   UNL     1      99.900  -0.282  25.001  1.00  0.00     0.004 C 
ENDBRANCH  16  17
ENDBRANCH  15  16
ENDBRANCH  14  15
ENDBRANCH  13  14
ENDBRANCH  12  13
ENDBRANCH  11  12
ENDBRANCH   1  11
TORSDOF 14
ENDMDL
MODEL 8
REMARK VINA RESULT:    -3.805      1.783      3.203
REMARK INTER + INTRA:          -9.539
REMARK INTER:                  -7.517
REMARK INTRA:                  -2.022
REMARK UNBOUND:                -2.621
REMARK SMILES CCCCCCCCCCCCCCCC(=O)[O-]
REMARK SMILES IDX 9 1 10 2 11 3 12 4 13 5 14 6 15 7 16 8 17 9 18 10 8 11 7 12
REMARK SMILES IDX 6 13 5 14 4 15 3 16 2 17 1 18
REMARK H PARENT
REMARK Flexibility Score: inf
ROOT
ATOM      1  C   UNL     1      98.297   2.530  25.210  1.00  0.00     0.000 C 
ENDROOT
BRANCH   1   2
ATOM      2  C   UNL     1      98.604   3.167  23.847  1.00  0.00     0.000 C 
BRANCH   2   3
ATOM      3  C   UNL     1      99.795   4.128  23.947  1.00  0.00     0.000 C 
BRANCH   3   4
ATOM      4  C   UNL     1     100.803   3.649  25.003  1.00  0.00     0.000 C 
BRANCH   4   5
ATOM      5  C   UNL     1     102.063   3.028  24.382  1.00  0.00     0.000 C 
BRANCH   5   6
ATOM      6  C   UNL     1     101.756   1.769  23.552  1.00  0.00     0.006 C 
BRANCH   6   7
ATOM      7  C   UNL     1     101.743   0.499  24.412  1.00  0.00     0.053 C 
BRANCH   7   8
ATOM      8  C   UNL     1     100.464  -0.265  24.258  1.00  0.00     0.041 C 
ATOM      9  O   UNL     1      99.974  -0.889  25.236  1.00  0.00    -0.550 OA
ATOM     10  O   UNL     1      99.828  -0.313  23.023  1.00  0.00    -0.550 OA
ENDBRANCH   7   8
ENDBRANCH   6   7
ENDBRANCH   5   6
ENDBRANCH   4   5
ENDBRANCH   3   4
ENDBRANCH   2   3
ENDBRANCH   1   2
BRANCH   1  11
ATOM     11  C   UNL     1      97.063   3.146  25.890  1.00  0.00     0.000 C 
BRANCH  11  12
ATOM     12  C   UNL     1      97.423   4.327  26.809  1.00  0.00    -0.000 C 
BRANCH  12  13
ATOM     13  C   UNL     1      96.860   5.663  26.298  1.00  0.00    -0.000 C 
BRANCH  13  14
ATOM     14  C   UNL     1      95.426   5.532  25.751  1.00  0.00    -0.000 C 
BRANCH  14  15
ATOM     15  C   UNL     1      95.319   5.934  24.271  1.00  0.00    -0.000 C 
BRANCH  15  16
ATOM     16  C   UNL     1      96.670   6.373  23.679  1.00  0.00    -0.000 C 
BRANCH  16  17
ATOM     17  C   UNL     1      96.729   6.200  22.153  1.00  0.00    -0.003 C 
ATOM     18  C   UNL     1      98.125   6.446  21.581  1.00  0.00     0.004 C 
ENDBRANCH  16  17
ENDBRANCH  15  16
ENDBRANCH  14  15
ENDBRANCH  13  14
ENDBRANCH  12  13
ENDBRANCH  11  12
ENDBRANCH   1  11
TORSDOF 14
ENDMDL
MODEL 9
REMARK VINA RESULT:    -3.773      2.804      5.971
REMARK INTER + INTRA:          -9.482
REMARK INTER:                  -7.445
REMARK INTRA:                  -2.037
REMARK UNBOUND:                -2.621
REMARK SMILES CCCCCCCCCCCCCCCC(=O)[O-]
REMARK SMILES IDX 9 1 10 2 11 3 12 4 13 5 14 6 15 7 16 8 17 9 18 10 8 11 7 12
REMARK SMILES IDX 6 13 5 14 4 15 3 16 2 17 1 18
REMARK H PARENT
REMARK Flexibility Score: inf
ROOT
ATOM      1  C   UNL     1      97.254   3.258  25.984  1.00  0.00     0.000 C 
ENDROOT
BRANCH   1   2
ATOM      2  C   UNL     1      97.625   4.523  26.771  1.00  0.00     0.000 C 
BRANCH   2   3
ATOM      3  C   UNL     1      96.814   5.730  26.285  1.00  0.00     0.000 C 
BRANCH   3   4
ATOM      4  C   UNL     1      95.563   5.278  25.514  1.00  0.00     0.000 C 
BRANCH   4   5
ATOM      5  C   UNL     1      95.405   6.000  24.167  1.00  0.00     0.000 C 
BRANCH   5   6
ATOM      6  C   UNL     1      96.146   5.287  23.023  1.00  0.00     0.006 C 
BRANCH   6   7
ATOM      7  C   UNL     1      97.387   6.064  22.564  1.00  0.00     0.053 C 
BRANCH   7   8
ATOM      8  C   UNL     1      97.176   6.712  21.229  1.00  0.00     0.041 C 
ATOM      9  O   UNL     1      98.161   7.112  20.555  1.00  0.00    -0.550 OA
ATOM     10  O   UNL     1      95.888   6.900  20.743  1.00  0.00    -0.550 OA
ENDBRANCH   7   8
ENDBRANCH   6   7
ENDBRANCH   5   6
ENDBRANCH   4   5
ENDBRANCH   3   4
ENDBRANCH   2   3
ENDBRANCH   1   2
BRANCH   1  11
ATOM     11  C   UNL     1      98.484   2.517  25.435  1.00  0.00     0.000 C 
BRANCH  11  12
ATOM     12  C   UNL     1      98.790   2.882  23.972  1.00  0.00    -0.000 C 
BRANCH  12  13
ATOM     13  C   UNL     1     100.031   3.779  23.836  1.00  0.00    -0.000 C 
BRANCH  13  14
ATOM     14  C   UNL     1     100.875   3.824  25.124  1.00  0.00    -0.000 C 
BRANCH  14  15
ATOM     15  C   UNL     1     102.334   3.402  24.890  1.00  0.00    -0.000 C 
BRANCH  15  16
ATOM     16  C   UNL     1     102.593   1.935  25.273  1.00  0.00    -0.000 C 
BRANCH  16  17
ATOM     17  C   UNL     1     102.784   1.030  24.046  1.00  0.00    -0.003 C 
ATOM     18  C   UNL     1     101.497   0.318  23.628  1.00  0.00     0.004 C 
ENDBRANCH  16  17
ENDBRANCH  15  16
ENDBRANCH  14  15
ENDBRANCH  13  14
ENDBRANCH  12  13
ENDBRANCH  11  12
ENDBRANCH   1  11
TORSDOF 14
ENDMDL
