MODEL 1
REMARK VINA RESULT:    -3.997      0.000      0.000
REMARK INTER + INTRA:          -6.929
REMARK INTER:                  -6.334
REMARK INTRA:                  -0.595
REMARK UNBOUND:                -0.595
REMARK SMILES CCCCCCCCCCCC(=O)[O-]
REMARK SMILES IDX 7 1 8 2 9 3 10 4 11 5 12 6 13 7 14 8 6 9 5 10 4 11 3 12 2 13
REMARK SMILES IDX 1 14
REMARK H PARENT
REMARK Flexibility Score: inf
ROOT
ATOM      1  C   UNL     1      25.500   1.552  43.618  1.00  0.00     0.000 C 
ENDROOT
BRANCH   1   2
ATOM      2  C   UNL     1      26.005   2.693  42.721  1.00  0.00     0.000 C 
BRANCH   2   3
ATOM      3  C   UNL     1      25.432   2.571  41.304  1.00  0.00     0.000 C 
BRANCH   3   4
ATOM      4  C   UNL     1      26.463   2.998  40.253  1.00  0.00     0.006 C 
BRANCH   4   5
ATOM      5  C   UNL     1      26.812   1.836  39.319  1.00  0.00     0.053 C 
BRANCH   5   6
ATOM      6  C   UNL     1      25.712   1.608  38.332  1.00  0.00     0.041 C 
ATOM      7  O   UNL     1      25.014   2.574  37.927  1.00  0.00    -0.550 OA
ATOM      8  O   UNL     1      25.489   0.335  37.821  1.00  0.00    -0.550 OA
ENDBRANCH   5   6
ENDBRANCH   4   5
ENDBRANCH   3   4
ENDBRANCH   2   3
ENDBRANCH   1   2
BRANCH   1   9
ATOM      9  C   UNL     1      26.594   0.523  43.940  1.00  0.00     0.000 C 
BRANCH   9  10
ATOM     10  C   UNL     1      26.556  -0.695  43.004  1.00  0.00    -0.000 C 
BRANCH  10  11
ATOM     11  C   UNL     1      27.877  -1.478  43.070  1.00  0.00    -0.000 C 
BRANCH  11  12
ATOM     12  C   UNL     1      28.195  -2.001  44.482  1.00  0.00    -0.000 C 
BRANCH  12  13
ATOM     13  C   UNL     1      27.733  -3.444  44.756  1.00  0.00    -0.003 C 
ATOM     14  C   UNL     1      27.748  -4.324  43.507  1.00  0.00     0.004 C 
ENDBRANCH  12  13
ENDBRANCH  11  12
ENDBRANCH  10  11
ENDBRANCH   9  10
ENDBRANCH   1   9
TORSDOF 10
ENDMDL
MODEL 2
REMARK VINA RESULT:    -3.995      5.322      7.348
REMARK INTER + INTRA:          -6.925
REMARK INTER:                  -6.270
REMARK INTRA:                  -0.655
REMARK UNBOUND:                -0.595
REMARK SMILES CCCCCCCCCCCC(=O)[O-]
REMARK SMILES IDX 7 1 8 2 9 3 10 4 11 5 12 6 13 7 14 8 6 9 5 10 4 11 3 12 2 13
REMARK SMILES IDX 1 14
REMARK H PARENT
REMARK Flexibility Score: inf
ROOT
ATOM      1  C   UNL     1      25.380  -3.147  36.410  1.00  0.00     0.000 C 
ENDROOT
BRANCH   1   2
ATOM      2  C   UNL     1      26.230  -1.895  36.673  1.00  0.00     0.000 C 
BRANCH   2   3
ATOM      3  C   UNL     1      25.357  -0.730  37.158  1.00  0.00     0.000 C 
BRANCH   3   4
ATOM      4  C   UNL     1      26.089   0.106  38.213  1.00  0.00     0.006 C 
BRANCH   4   5
ATOM      5  C   UNL     1      26.059   1.594  37.854  1.00  0.00     0.053 C 
BRANCH   5   6
ATOM      6  C   UNL     1      24.954   2.288  38.586  1.00  0.00     0.041 C 
ATOM      7  O   UNL     1      24.979   2.368  39.842  1.00  0.00    -0.550 OA
ATOM      8  O   UNL     1      23.922   2.889  37.877  1.00  0.00    -0.550 OA
ENDBRANCH   5   6
ENDBRANCH   4   5
ENDBRANCH   3   4
ENDBRANCH   2   3
ENDBRANCH   1   2
BRANCH   1   9
ATOM      9  C   UNL     1      24.026  -2.818  35.764  1.00  0.00     0.000 C 
BRANCH   9  10
ATOM     10  C   UNL     1      22.835  -3.149  36.678  1.00  0.00    -0.000 C 
BRANCH  10  11
ATOM     11  C   UNL     1      22.258  -4.533  36.348  1.00  0.00    -0.000 C 
BRANCH  11  12
ATOM     12  C   UNL     1      22.551  -4.977  34.904  1.00  0.00    -0.000 C 
BRANCH  12  13
ATOM     13  C   UNL     1      23.237  -6.349  34.776  1.00  0.00    -0.003 C 
ATOM     14  C   UNL     1      24.264  -6.609  35.876  1.00  0.00     0.004 C 
ENDBRANCH  12  13
ENDBRANCH  11  12
ENDBRANCH  10  11
ENDBRANCH   9  10
ENDBRANCH   1   9
TORSDOF 10
ENDMDL
MODEL 3
REMARK VINA RESULT:    -3.985      3.616      6.349
REMARK INTER + INTRA:          -6.910
REMARK INTER:                  -6.206
REMARK INTRA:                  -0.704
REMARK UNBOUND:                -0.595
REMARK SMILES CCCCCCCCCCCC(=O)[O-]
REMARK SMILES IDX 7 1 8 2 9 3 10 4 11 5 12 6 13 7 14 8 6 9 5 10 4 11 3 12 2 13
REMARK SMILES IDX 1 14
REMARK H PARENT
REMARK Flexibility Score: inf
ROOT
ATOM      1  C   UNL     1      26.438   2.049  43.952  1.00  0.00     0.000 C 
ENDROOT
BRANCH   1   2
ATOM      2  C   UNL     1      25.561   0.792  43.848  1.00  0.00     0.000 C 
BRANCH   2   3
ATOM      3  C   UNL     1      26.300  -0.334  43.113  1.00  0.00     0.000 C 
BRANCH   3   4
ATOM      4  C   UNL     1      27.436  -0.900  43.972  1.00  0.00     0.006 C 
BRANCH   4   5
ATOM      5  C   UNL     1      27.712  -2.366  43.624  1.00  0.00     0.053 C 
BRANCH   5   6
ATOM      6  C   UNL     1      27.696  -3.210  44.859  1.00  0.00     0.041 C 
ATOM      7  O   UNL     1      28.524  -2.996  45.782  1.00  0.00    -0.550 OA
ATOM      8  O   UNL     1      26.736  -4.202  45.010  1.00  0.00    -0.550 OA
ENDBRANCH   5   6
ENDBRANCH   4   5
ENDBRANCH   3   4
ENDBRANCH   2   3
ENDBRANCH   1   2
BRANCH   1   9
ATOM      9  C   UNL     1      26.406   2.901  42.675  1.00  0.00     0.000 C 
BRANCH   9  10
ATOM     10  C   UNL     1      24.996   3.020  42.076  1.00  0.00    -0.000 C 
BRANCH  10  11
ATOM     11  C   UNL     1      25.000   2.646  40.586  1.00  0.00    -0.000 C 
BRANCH  11  12
ATOM     12  C   UNL     1      26.415   2.595  39.983  1.00  0.00    -0.000 C 
BRANCH  12  13
ATOM     13  C   UNL     1      26.470   2.207  38.495  1.00  0.00    -0.003 C 
ATOM     14  C   UNL     1      25.996   0.778  38.232  1.00  0.00     0.004 C 
ENDBRANCH  12  13
ENDBRANCH  11  12
ENDBRANCH  10  11
ENDBRANCH   9  10
ENDBRANCH   1   9
TORSDOF 10
ENDMDL
MODEL 4
REMARK VINA RESULT:    -3.984      4.751      6.996
REMARK INTER + INTRA:          -6.908
REMARK INTER:                  -6.552
REMARK INTRA:                  -0.356
REMARK UNBOUND:                -0.595
REMARK SMILES CCCCCCCCCCCC(=O)[O-]
REMARK SMILES IDX 7 1 8 2 9 3 10 4 11 5 12 6 13 7 14 8 6 9 5 10 4 11 3 12 2 13
REMARK SMILES IDX 1 14
REMARK H PARENT
REMARK Flexibility Score: inf
ROOT
ATOM      1  C   UNL     1      25.018  -0.756  37.214  1.00  0.00     0.000 C 
ENDROOT
BRANCH   1   2
ATOM      2  C   UNL     1      26.155   0.058  37.851  1.00  0.00     0.000 C 
BRANCH   2   3
ATOM      3  C   UNL     1      25.706   1.496  38.140  1.00  0.00     0.000 C 
BRANCH   3   4
ATOM      4  C   UNL     1      26.420   2.060  39.374  1.00  0.00     0.006 C 
BRANCH   4   5
ATOM      5  C   UNL     1      25.415   2.622  40.382  1.00  0.00     0.053 C 
BRANCH   5   6
ATOM      6  C   UNL     1      26.126   3.215  41.557  1.00  0.00     0.041 C 
ATOM      7  O   UNL     1      26.133   2.613  42.662  1.00  0.00    -0.550 OA
ATOM      8  O   UNL     1      26.824   4.408  41.417  1.00  0.00    -0.550 OA
ENDBRANCH   5   6
ENDBRANCH   4   5
ENDBRANCH   3   4
ENDBRANCH   2   3
ENDBRANCH   1   2
BRANCH   1   9
ATOM      9  C   UNL     1      25.527  -1.987  36.450  1.00  0.00     0.000 C 
BRANCH   9  10
ATOM     10  C   UNL     1      24.401  -2.751  35.736  1.00  0.00    -0.000 C 
BRANCH  10  11
ATOM     11  C   UNL     1      23.180  -2.912  36.655  1.00  0.00    -0.000 C 
BRANCH  11  12
ATOM     12  C   UNL     1      22.213  -4.012  36.180  1.00  0.00    -0.000 C 
BRANCH  12  13
ATOM     13  C   UNL     1      22.591  -4.670  34.841  1.00  0.00    -0.003 C 
ATOM     14  C   UNL     1      23.055  -6.118  34.996  1.00  0.00     0.004 C 
ENDBRANCH  12  13
ENDBRANCH  11  12
ENDBRANCH  10  11
ENDBRANCH   9  10
ENDBRANCH   1   9
TORSDOF 10
ENDMDL
MODEL 5
REMARK VINA RESULT:    -3.958      6.739      9.070
REMARK INTER + INTRA:          -6.866
REMARK INTER:                  -5.849
REMARK INTRA:                  -1.017
REMARK UNBOUND:                -0.595
REMARK SMILES CCCCCCCCCCCC(=O)[O-]
REMARK SMILES IDX 7 1 8 2 9 3 10 4 11 5 12 6 13 7 14 8 6 9 5 10 4 11 3 12 2 13
REMARK SMILES IDX 1 14
REMARK H PARENT
REMARK Flexibility Score: inf
ROOT
ATOM      1  C   UNL     1      24.393  -6.484  35.918  1.00  0.00     0.000 C 
ENDROOT
BRANCH   1   2
ATOM      2  C   UNL     1      25.675  -5.797  35.423  1.00  0.00     0.000 C 
BRANCH   2   3
ATOM      3  C   UNL     1      26.719  -5.710  36.543  1.00  0.00     0.000 C 
BRANCH   3   4
ATOM      4  C   UNL     1      27.690  -4.549  36.303  1.00  0.00     0.006 C 
BRANCH   4   5
ATOM      5  C   UNL     1      28.871  -4.609  37.275  1.00  0.00     0.053 C 
BRANCH   5   6
ATOM      6  C   UNL     1      29.430  -3.241  37.508  1.00  0.00     0.041 C 
ATOM      7  O   UNL     1      30.365  -2.808  36.785  1.00  0.00    -0.550 OA
ATOM      8  O   UNL     1      28.885  -2.426  38.491  1.00  0.00    -0.550 OA
ENDBRANCH   5   6
ENDBRANCH   4   5
ENDBRANCH   3   4
ENDBRANCH   2   3
ENDBRANCH   1   2
BRANCH   1   9
ATOM      9  C   UNL     1      23.219  -6.323  34.940  1.00  0.00     0.000 C 
BRANCH   9  10
ATOM     10  C   UNL     1      22.683  -4.884  34.887  1.00  0.00    -0.000 C 
BRANCH  10  11
ATOM     11  C   UNL     1      22.193  -4.430  36.270  1.00  0.00    -0.000 C 
BRANCH  11  12
ATOM     12  C   UNL     1      22.798  -3.084  36.709  1.00  0.00    -0.000 C 
BRANCH  12  13
ATOM     13  C   UNL     1      24.031  -2.637  35.903  1.00  0.00    -0.003 C 
ATOM     14  C   UNL     1      25.033  -1.839  36.736  1.00  0.00     0.004 C 
ENDBRANCH  12  13
ENDBRANCH  11  12
ENDBRANCH  10  11
ENDBRANCH   9  10
ENDBRANCH   1   9
TORSDOF 10
ENDMDL
MODEL 6
REMARK VINA RESULT:    -3.941      6.995      9.116
REMARK INTER + INTRA:          -6.840
REMARK INTER:                  -5.630
REMARK INTRA:                  -1.210
REMARK UNBOUND:                -0.595
REMARK SMILES CCCCCCCCCCCC(=O)[O-]
REMARK SMILES IDX 7 1 8 2 9 3 10 4 11 5 12 6 13 7 14 8 6 9 5 10 4 11 3 12 2 13
REMARK SMILES IDX 1 14
REMARK H PARENT
REMARK Flexibility Score: inf
ROOT
ATOM      1  C   UNL     1      25.238  -7.012  35.951  1.00  0.00     0.000 C 
ENDROOT
BRANCH   1   2
ATOM      2  C   UNL     1      26.401  -6.297  36.657  1.00  0.00     0.000 C 
BRANCH   2   3
ATOM      3  C   UNL     1      26.719  -4.961  35.975  1.00  0.00     0.000 C 
BRANCH   3   4
ATOM      4  C   UNL     1      25.720  -3.876  36.391  1.00  0.00     0.006 C 
BRANCH   4   5
ATOM      5  C   UNL     1      26.376  -2.493  36.388  1.00  0.00     0.053 C 
BRANCH   5   6
ATOM      6  C   UNL     1      25.383  -1.441  36.769  1.00  0.00     0.041 C 
ATOM      7  O   UNL     1      25.731  -0.475  37.496  1.00  0.00    -0.550 OA
ATOM      8  O   UNL     1      24.084  -1.501  36.279  1.00  0.00    -0.550 OA
ENDBRANCH   5   6
ENDBRANCH   4   5
ENDBRANCH   3   4
ENDBRANCH   2   3
ENDBRANCH   1   2
BRANCH   1   9
ATOM      9  C   UNL     1      25.384  -7.011  34.422  1.00  0.00     0.000 C 
BRANCH   9  10
ATOM     10  C   UNL     1      24.189  -6.357  33.712  1.00  0.00    -0.000 C 
BRANCH  10  11
ATOM     11  C   UNL     1      23.031  -6.119  34.693  1.00  0.00    -0.000 C 
BRANCH  11  12
ATOM     12  C   UNL     1      22.598  -4.643  34.765  1.00  0.00    -0.000 C 
BRANCH  12  13
ATOM     13  C   UNL     1      22.010  -4.208  36.119  1.00  0.00    -0.003 C 
ATOM     14  C   UNL     1      21.770  -5.378  37.071  1.00  0.00     0.004 C 
ENDBRANCH  12  13
ENDBRANCH  11  12
ENDBRANCH  10  11
ENDBRANCH   9  10
ENDBRANCH   1   9
TORSDOF 10
ENDMDL
MODEL 7
REMARK VINA RESULT:    -3.914      6.908      9.138
REMARK INTER + INTRA:          -6.797
REMARK INTER:                  -5.548
REMARK INTRA:                  -1.249
REMARK UNBOUND:                -0.595
REMARK SMILES CCCCCCCCCCCC(=O)[O-]
REMARK SMILES IDX 7 1 8 2 9 3 10 4 11 5 12 6 13 7 14 8 6 9 5 10 4 11 3 12 2 13
REMARK SMILES IDX 1 14
REMARK H PARENT
REMARK Flexibility Score: inf
ROOT
ATOM      1  C   UNL     1      25.152  -6.581  36.236  1.00  0.00     0.000 C 
ENDROOT
BRANCH   1   2
ATOM      2  C   UNL     1      26.436  -5.778  36.494  1.00  0.00     0.000 C 
BRANCH   2   3
ATOM      3  C   UNL     1      26.937  -5.114  35.205  1.00  0.00     0.000 C 
BRANCH   3   4
ATOM      4  C   UNL     1      28.012  -4.064  35.506  1.00  0.00     0.006 C 
BRANCH   4   5
ATOM      5  C   UNL     1      27.701  -3.314  36.805  1.00  0.00     0.053 C 
BRANCH   5   6
ATOM      6  C   UNL     1      28.942  -3.147  37.623  1.00  0.00     0.041 C 
ATOM      7  O   UNL     1      28.895  -2.546  38.728  1.00  0.00    -0.550 OA
ATOM      8  O   UNL     1      30.141  -3.698  37.189  1.00  0.00    -0.550 OA
ENDBRANCH   5   6
ENDBRANCH   4   5
ENDBRANCH   3   4
ENDBRANCH   2   3
ENDBRANCH   1   2
BRANCH   1   9
ATOM      9  C   UNL     1      24.568  -6.330  34.837  1.00  0.00     0.000 C 
BRANCH   9  10
ATOM     10  C   UNL     1      23.036  -6.215  34.846  1.00  0.00    -0.000 C 
BRANCH  10  11
ATOM     11  C   UNL     1      22.597  -4.743  34.889  1.00  0.00    -0.000 C 
BRANCH  11  12
ATOM     12  C   UNL     1      22.266  -4.257  36.311  1.00  0.00    -0.000 C 
BRANCH  12  13
ATOM     13  C   UNL     1      23.011  -2.982  36.747  1.00  0.00    -0.003 C 
ATOM     14  C   UNL     1      24.191  -2.639  35.839  1.00  0.00     0.004 C 
ENDBRANCH  12  13
ENDBRANCH  11  12
ENDBRANCH  10  11
ENDBRANCH   9  10
ENDBRANCH   1   9
TORSDOF 10
ENDMDL
MODEL 8
REMARK VINA RESULT:    -3.913      6.905      8.741
REMARK INTER + INTRA:          -6.795
REMARK INTER:                  -5.596
REMARK INTRA:                  -1.200
REMARK UNBOUND:                -0.595
REMARK SMILES CCCCCCCCCCCC(=O)[O-]
REMARK SMILES IDX 7 1 8 2 9 3 10 4 11 5 12 6 13 7 14 8 6 9 5 10 4 11 3 12 2 13
REMARK SMILES IDX 1 14
REMARK H PARENT
REMARK Flexibility Score: inf
ROOT
ATOM      1  C   UNL     1      23.390  -2.985  36.675  1.00  0.00     0.000 C 
ENDROOT
BRANCH   1   2
ATOM      2  C   UNL     1      24.505  -2.682  35.662  1.00  0.00     0.000 C 
BRANCH   2   3
ATOM      3  C   UNL     1      25.852  -2.488  36.369  1.00  0.00     0.000 C 
BRANCH   3   4
ATOM      4  C   UNL     1      26.690  -3.771  36.323  1.00  0.00     0.006 C 
BRANCH   4   5
ATOM      5  C   UNL     1      28.174  -3.453  36.125  1.00  0.00     0.053 C 
BRANCH   5   6
ATOM      6  C   UNL     1      28.913  -3.572  37.420  1.00  0.00     0.041 C 
ATOM      7  O   UNL     1      29.676  -4.552  37.626  1.00  0.00    -0.550 OA
ATOM      8  O   UNL     1      28.798  -2.575  38.380  1.00  0.00    -0.550 OA
ENDBRANCH   5   6
ENDBRANCH   4   5
ENDBRANCH   3   4
ENDBRANCH   2   3
ENDBRANCH   1   2
BRANCH   1   9
ATOM      9  C   UNL     1      22.186  -3.693  36.036  1.00  0.00     0.000 C 
BRANCH   9  10
ATOM     10  C   UNL     1      22.163  -5.202  36.325  1.00  0.00    -0.000 C 
BRANCH  10  11
ATOM     11  C   UNL     1      22.892  -5.983  35.221  1.00  0.00    -0.000 C 
BRANCH  11  12
ATOM     12  C   UNL     1      24.220  -6.598  35.698  1.00  0.00    -0.000 C 
BRANCH  12  13
ATOM     13  C   UNL     1      25.295  -6.740  34.606  1.00  0.00    -0.003 C 
ATOM     14  C   UNL     1      25.145  -5.716  33.482  1.00  0.00     0.004 C 
ENDBRANCH  12  13
ENDBRANCH  11  12
ENDBRANCH  10  11
ENDBRANCH   9  10
ENDBRANCH   1   9
TORSDOF 10
ENDMDL
MODEL 9
REMARK VINA RESULT:    -3.893      7.123      8.611
REMARK INTER + INTRA:          -6.764
REMARK INTER:                  -5.636
REMARK INTRA:                  -1.128
REMARK UNBOUND:                -0.595
REMARK SMILES CCCCCCCCCCCC(=O)[O-]
REMARK SMILES IDX 7 1 8 2 9 3 10 4 11 5 12 6 13 7 14 8 6 9 5 10 4 11 3 12 2 13
REMARK SMILES IDX 1 14
REMARK H PARENT
REMARK Flexibility Score: inf
ROOT
ATOM      1  C   UNL     1      23.603  -2.220  36.374  1.00  0.00     0.000 C 
ENDROOT
BRANCH   1   2
ATOM      2  C   UNL     1      24.877  -2.633  35.621  1.00  0.00     0.000 C 
BRANCH   2   3
ATOM      3  C   UNL     1      26.090  -2.644  36.559  1.00  0.00     0.000 C 
BRANCH   3   4
ATOM      4  C   UNL     1      27.130  -3.674  36.106  1.00  0.00     0.006 C 
BRANCH   4   5
ATOM      5  C   UNL     1      28.501  -3.381  36.721  1.00  0.00     0.053 C 
BRANCH   5   6
ATOM      6  C   UNL     1      29.531  -3.210  35.649  1.00  0.00     0.041 C 
ATOM      7  O   UNL     1      29.193  -3.229  34.437  1.00  0.00    -0.550 OA
ATOM      8  O   UNL     1      30.858  -2.980  35.991  1.00  0.00    -0.550 OA
ENDBRANCH   5   6
ENDBRANCH   4   5
ENDBRANCH   3   4
ENDBRANCH   2   3
ENDBRANCH   1   2
BRANCH   1   9
ATOM      9  C   UNL     1      22.729  -3.421  36.764  1.00  0.00     0.000 C 
BRANCH   9  10
ATOM     10  C   UNL     1      22.140  -4.147  35.545  1.00  0.00    -0.000 C 
BRANCH  10  11
ATOM     11  C   UNL     1      22.371  -5.662  35.644  1.00  0.00    -0.000 C 
BRANCH  11  12
ATOM     12  C   UNL     1      23.326  -6.197  34.562  1.00  0.00    -0.000 C 
BRANCH  12  13
ATOM     13  C   UNL     1      24.803  -6.282  34.989  1.00  0.00    -0.003 C 
ATOM     14  C   UNL     1      24.980  -6.716  36.444  1.00  0.00     0.004 C 
ENDBRANCH  12  13
ENDBRANCH  11  12
ENDBRANCH  10  11
ENDBRANCH   9  10
ENDBRANCH   1   9
TORSDOF 10
ENDMDL
