MODEL 1
REMARK VINA RESULT:    -4.696      0.000      0.000
REMARK INTER + INTRA:          -8.221
REMARK INTER:                  -7.442
REMARK INTRA:                  -0.780
REMARK UNBOUND:                -0.780
REMARK SMILES CCCCCCCCCCCC(=O)[O-]
REMARK SMILES IDX 7 1 8 2 9 3 10 4 11 5 12 6 13 7 14 8 6 9 5 10 4 11 3 12 2 13
REMARK SMILES IDX 1 14
REMARK H PARENT
REMARK Flexibility Score: inf
ROOT
ATOM      1  C   UNL     1     -12.799 -13.789  14.215  1.00  0.00     0.000 C 
ENDROOT
BRANCH   1   2
ATOM      2  C   UNL     1     -13.225 -12.313  14.254  1.00  0.00     0.000 C 
BRANCH   2   3
ATOM      3  C   UNL     1     -14.063 -11.951  13.020  1.00  0.00     0.000 C 
BRANCH   3   4
ATOM      4  C   UNL     1     -15.411 -12.693  12.965  1.00  0.00     0.006 C 
BRANCH   4   5
ATOM      5  C   UNL     1     -16.304 -12.458  14.196  1.00  0.00     0.053 C 
BRANCH   5   6
ATOM      6  C   UNL     1     -16.665 -13.733  14.896  1.00  0.00     0.041 C 
ATOM      7  O   UNL     1     -16.304 -13.926  16.087  1.00  0.00    -0.550 OA
ATOM      8  O   UNL     1     -17.433 -14.693  14.248  1.00  0.00    -0.550 OA
ENDBRANCH   5   6
ENDBRANCH   4   5
ENDBRANCH   3   4
ENDBRANCH   2   3
ENDBRANCH   1   2
BRANCH   1   9
ATOM      9  C   UNL     1     -11.563 -14.072  15.083  1.00  0.00     0.000 C 
BRANCH   9  10
ATOM     10  C   UNL     1     -11.052 -12.821  15.814  1.00  0.00    -0.000 C 
BRANCH  10  11
ATOM     11  C   UNL     1      -9.541 -12.650  15.618  1.00  0.00    -0.000 C 
BRANCH  11  12
ATOM     12  C   UNL     1      -9.165 -12.737  14.134  1.00  0.00    -0.000 C 
BRANCH  12  13
ATOM     13  C   UNL     1      -8.269 -11.562  13.725  1.00  0.00    -0.003 C 
ATOM     14  C   UNL     1      -8.900 -10.228  14.115  1.00  0.00     0.004 C 
ENDBRANCH  12  13
ENDBRANCH  11  12
ENDBRANCH  10  11
ENDBRANCH   9  10
ENDBRANCH   1   9
TORSDOF 10
ENDMDL
MODEL 2
REMARK VINA RESULT:    -4.609      1.375      2.147
REMARK INTER + INTRA:          -8.083
REMARK INTER:                  -7.331
REMARK INTRA:                  -0.752
REMARK UNBOUND:                -0.780
REMARK SMILES CCCCCCCCCCCC(=O)[O-]
REMARK SMILES IDX 7 1 8 2 9 3 10 4 11 5 12 6 13 7 14 8 6 9 5 10 4 11 3 12 2 13
REMARK SMILES IDX 1 14
REMARK H PARENT
REMARK Flexibility Score: inf
ROOT
ATOM      1  C   UNL     1     -11.302 -12.760  15.955  1.00  0.00     0.000 C 
ENDROOT
BRANCH   1   2
ATOM      2  C   UNL     1     -12.722 -13.223  15.597  1.00  0.00     0.000 C 
BRANCH   2   3
ATOM      3  C   UNL     1     -12.904 -13.310  14.075  1.00  0.00     0.000 C 
BRANCH   3   4
ATOM      4  C   UNL     1     -13.423 -12.001  13.452  1.00  0.00     0.006 C 
BRANCH   4   5
ATOM      5  C   UNL     1     -14.707 -12.170  12.623  1.00  0.00     0.053 C 
BRANCH   5   6
ATOM      6  C   UNL     1     -15.781 -12.904  13.367  1.00  0.00     0.041 C 
ATOM      7  O   UNL     1     -16.392 -12.344  14.314  1.00  0.00    -0.550 OA
ATOM      8  O   UNL     1     -16.135 -14.194  12.991  1.00  0.00    -0.550 OA
ENDBRANCH   5   6
ENDBRANCH   4   5
ENDBRANCH   3   4
ENDBRANCH   2   3
ENDBRANCH   1   2
BRANCH   1   9
ATOM      9  C   UNL     1     -10.213 -13.623  15.297  1.00  0.00     0.000 C 
BRANCH   9  10
ATOM     10  C   UNL     1      -8.900 -12.856  15.081  1.00  0.00    -0.000 C 
BRANCH  10  11
ATOM     11  C   UNL     1      -9.172 -11.398  14.693  1.00  0.00    -0.000 C 
BRANCH  11  12
ATOM     12  C   UNL     1      -8.130 -10.890  13.689  1.00  0.00    -0.000 C 
BRANCH  12  13
ATOM     13  C   UNL     1      -7.039 -11.941  13.452  1.00  0.00    -0.003 C 
ATOM     14  C   UNL     1      -5.648 -11.335  13.610  1.00  0.00     0.004 C 
ENDBRANCH  12  13
ENDBRANCH  11  12
ENDBRANCH  10  11
ENDBRANCH   9  10
ENDBRANCH   1   9
TORSDOF 10
ENDMDL
MODEL 3
REMARK VINA RESULT:    -4.607      4.050      7.025
REMARK INTER + INTRA:          -8.080
REMARK INTER:                  -7.361
REMARK INTRA:                  -0.718
REMARK UNBOUND:                -0.780
REMARK SMILES CCCCCCCCCCCC(=O)[O-]
REMARK SMILES IDX 7 1 8 2 9 3 10 4 11 5 12 6 13 7 14 8 6 9 5 10 4 11 3 12 2 13
REMARK SMILES IDX 1 14
REMARK H PARENT
REMARK Flexibility Score: inf
ROOT
ATOM      1  C   UNL     1     -11.602 -13.080  15.714  1.00  0.00     0.000 C 
ENDROOT
BRANCH   1   2
ATOM      2  C   UNL     1     -10.620 -13.943  14.907  1.00  0.00     0.000 C 
BRANCH   2   3
ATOM      3  C   UNL     1      -9.549 -13.073  14.234  1.00  0.00     0.000 C 
BRANCH   3   4
ATOM      4  C   UNL     1      -9.794 -11.564  14.416  1.00  0.00     0.006 C 
BRANCH   4   5
ATOM      5  C   UNL     1      -8.588 -10.686  14.042  1.00  0.00     0.053 C 
BRANCH   5   6
ATOM      6  C   UNL     1      -7.298 -11.216  14.590  1.00  0.00     0.041 C 
ATOM      7  O   UNL     1      -7.031 -11.091  15.815  1.00  0.00    -0.550 OA
ATOM      8  O   UNL     1      -6.406 -11.882  13.759  1.00  0.00    -0.550 OA
ENDBRANCH   5   6
ENDBRANCH   4   5
ENDBRANCH   3   4
ENDBRANCH   2   3
ENDBRANCH   1   2
BRANCH   1   9
ATOM      9  C   UNL     1     -13.071 -13.371  15.368  1.00  0.00     0.000 C 
BRANCH   9  10
ATOM     10  C   UNL     1     -13.222 -14.261  14.125  1.00  0.00    -0.000 C 
BRANCH  10  11
ATOM     11  C   UNL     1     -14.628 -14.135  13.527  1.00  0.00    -0.000 C 
BRANCH  11  12
ATOM     12  C   UNL     1     -15.200 -12.730  13.756  1.00  0.00    -0.000 C 
BRANCH  12  13
ATOM     13  C   UNL     1     -16.688 -12.797  14.120  1.00  0.00    -0.003 C 
ATOM     14  C   UNL     1     -17.140 -14.240  14.322  1.00  0.00     0.004 C 
ENDBRANCH  12  13
ENDBRANCH  11  12
ENDBRANCH  10  11
ENDBRANCH   9  10
ENDBRANCH   1   9
TORSDOF 10
ENDMDL
MODEL 4
REMARK VINA RESULT:    -4.501      3.800      6.735
REMARK INTER + INTRA:          -7.913
REMARK INTER:                  -6.954
REMARK INTRA:                  -0.959
REMARK UNBOUND:                -0.780
REMARK SMILES CCCCCCCCCCCC(=O)[O-]
REMARK SMILES IDX 7 1 8 2 9 3 10 4 11 5 12 6 13 7 14 8 6 9 5 10 4 11 3 12 2 13
REMARK SMILES IDX 1 14
REMARK H PARENT
REMARK Flexibility Score: inf
ROOT
ATOM      1  C   UNL     1     -12.403 -14.152  14.683  1.00  0.00     0.000 C 
ENDROOT
BRANCH   1   2
ATOM      2  C   UNL     1     -11.652 -12.812  14.728  1.00  0.00     0.000 C 
BRANCH   2   3
ATOM      3  C   UNL     1     -10.714 -12.749  15.941  1.00  0.00     0.000 C 
BRANCH   3   4
ATOM      4  C   UNL     1      -9.227 -12.871  15.561  1.00  0.00     0.006 C 
BRANCH   4   5
ATOM      5  C   UNL     1      -8.960 -12.801  14.048  1.00  0.00     0.053 C 
BRANCH   5   6
ATOM      6  C   UNL     1      -8.020 -11.695  13.679  1.00  0.00     0.041 C 
ATOM      7  O   UNL     1      -6.834 -11.956  13.345  1.00  0.00    -0.550 OA
ATOM      8  O   UNL     1      -8.461 -10.378  13.667  1.00  0.00    -0.550 OA
ENDBRANCH   5   6
ENDBRANCH   4   5
ENDBRANCH   3   4
ENDBRANCH   2   3
ENDBRANCH   1   2
BRANCH   1   9
ATOM      9  C   UNL     1     -13.728 -14.064  13.909  1.00  0.00     0.000 C 
BRANCH   9  10
ATOM     10  C   UNL     1     -14.244 -12.623  13.780  1.00  0.00    -0.000 C 
BRANCH  10  11
ATOM     11  C   UNL     1     -15.346 -12.340  14.808  1.00  0.00    -0.000 C 
BRANCH  11  12
ATOM     12  C   UNL     1     -15.993 -13.643  15.295  1.00  0.00    -0.000 C 
BRANCH  12  13
ATOM     13  C   UNL     1     -16.014 -13.706  16.827  1.00  0.00    -0.003 C 
ATOM     14  C   UNL     1     -14.730 -13.132  17.419  1.00  0.00     0.004 C 
ENDBRANCH  12  13
ENDBRANCH  11  12
ENDBRANCH  10  11
ENDBRANCH   9  10
ENDBRANCH   1   9
TORSDOF 10
ENDMDL
MODEL 5
REMARK VINA RESULT:    -4.447      3.717      7.019
REMARK INTER + INTRA:          -7.827
REMARK INTER:                  -7.088
REMARK INTRA:                  -0.739
REMARK UNBOUND:                -0.780
REMARK SMILES CCCCCCCCCCCC(=O)[O-]
REMARK SMILES IDX 7 1 8 2 9 3 10 4 11 5 12 6 13 7 14 8 6 9 5 10 4 11 3 12 2 13
REMARK SMILES IDX 1 14
REMARK H PARENT
REMARK Flexibility Score: inf
ROOT
ATOM      1  C   UNL     1     -12.637 -13.352  14.460  1.00  0.00     0.000 C 
ENDROOT
BRANCH   1   2
ATOM      2  C   UNL     1     -11.647 -13.245  15.629  1.00  0.00     0.000 C 
BRANCH   2   3
ATOM      3  C   UNL     1     -10.238 -13.674  15.197  1.00  0.00     0.000 C 
BRANCH   3   4
ATOM      4  C   UNL     1      -9.155 -12.641  15.554  1.00  0.00     0.006 C 
BRANCH   4   5
ATOM      5  C   UNL     1      -8.152 -12.368  14.420  1.00  0.00     0.053 C 
BRANCH   5   6
ATOM      6  C   UNL     1      -7.884 -10.907  14.227  1.00  0.00     0.041 C 
ATOM      7  O   UNL     1      -8.811 -10.134  13.868  1.00  0.00    -0.550 OA
ATOM      8  O   UNL     1      -6.620 -10.389  14.480  1.00  0.00    -0.550 OA
ENDBRANCH   5   6
ENDBRANCH   4   5
ENDBRANCH   3   4
ENDBRANCH   2   3
ENDBRANCH   1   2
BRANCH   1   9
ATOM      9  C   UNL     1     -12.818 -12.022  13.712  1.00  0.00     0.000 C 
BRANCH   9  10
ATOM     10  C   UNL     1     -14.157 -11.940  12.963  1.00  0.00    -0.000 C 
BRANCH  10  11
ATOM     11  C   UNL     1     -15.051 -13.138  13.306  1.00  0.00    -0.000 C 
BRANCH  11  12
ATOM     12  C   UNL     1     -16.263 -12.700  14.139  1.00  0.00    -0.000 C 
BRANCH  12  13
ATOM     13  C   UNL     1     -16.613 -13.756  15.194  1.00  0.00    -0.003 C 
ATOM     14  C   UNL     1     -15.771 -13.573  16.454  1.00  0.00     0.004 C 
ENDBRANCH  12  13
ENDBRANCH  11  12
ENDBRANCH  10  11
ENDBRANCH   9  10
ENDBRANCH   1   9
TORSDOF 10
ENDMDL
MODEL 6
REMARK VINA RESULT:    -4.360      2.256      2.905
REMARK INTER + INTRA:          -7.688
REMARK INTER:                  -6.842
REMARK INTRA:                  -0.846
REMARK UNBOUND:                -0.780
REMARK SMILES CCCCCCCCCCCC(=O)[O-]
REMARK SMILES IDX 7 1 8 2 9 3 10 4 11 5 12 6 13 7 14 8 6 9 5 10 4 11 3 12 2 13
REMARK SMILES IDX 1 14
REMARK H PARENT
REMARK Flexibility Score: inf
ROOT
ATOM      1  C   UNL     1     -13.198 -13.122  16.318  1.00  0.00     0.000 C 
ENDROOT
BRANCH   1   2
ATOM      2  C   UNL     1     -14.713 -12.877  16.376  1.00  0.00     0.000 C 
BRANCH   2   3
ATOM      3  C   UNL     1     -15.419 -13.516  15.172  1.00  0.00     0.000 C 
BRANCH   3   4
ATOM      4  C   UNL     1     -15.988 -12.481  14.185  1.00  0.00     0.006 C 
BRANCH   4   5
ATOM      5  C   UNL     1     -15.630 -12.756  12.714  1.00  0.00     0.053 C 
BRANCH   5   6
ATOM      6  C   UNL     1     -14.585 -11.819  12.191  1.00  0.00     0.041 C 
ATOM      7  O   UNL     1     -14.687 -11.339  11.032  1.00  0.00    -0.550 OA
ATOM      8  O   UNL     1     -13.516 -11.445  12.996  1.00  0.00    -0.550 OA
ENDBRANCH   5   6
ENDBRANCH   4   5
ENDBRANCH   3   4
ENDBRANCH   2   3
ENDBRANCH   1   2
BRANCH   1   9
ATOM      9  C   UNL     1     -12.787 -14.024  15.144  1.00  0.00     0.000 C 
BRANCH   9  10
ATOM     10  C   UNL     1     -11.340 -13.782  14.689  1.00  0.00    -0.000 C 
BRANCH  10  11
ATOM     11  C   UNL     1     -10.634 -12.782  15.613  1.00  0.00    -0.000 C 
BRANCH  11  12
ATOM     12  C   UNL     1      -9.651 -11.904  14.827  1.00  0.00    -0.000 C 
BRANCH  12  13
ATOM     13  C   UNL     1      -8.920 -12.722  13.756  1.00  0.00    -0.003 C 
ATOM     14  C   UNL     1      -7.441 -12.352  13.697  1.00  0.00     0.004 C 
ENDBRANCH  12  13
ENDBRANCH  11  12
ENDBRANCH  10  11
ENDBRANCH   9  10
ENDBRANCH   1   9
TORSDOF 10
ENDMDL
MODEL 7
REMARK VINA RESULT:    -4.184      1.801      2.528
REMARK INTER + INTRA:          -7.409
REMARK INTER:                  -6.801
REMARK INTRA:                  -0.608
REMARK UNBOUND:                -0.780
REMARK SMILES CCCCCCCCCCCC(=O)[O-]
REMARK SMILES IDX 7 1 8 2 9 3 10 4 11 5 12 6 13 7 14 8 6 9 5 10 4 11 3 12 2 13
REMARK SMILES IDX 1 14
REMARK H PARENT
REMARK Flexibility Score: inf
ROOT
ATOM      1  C   UNL     1     -11.144 -13.496  14.023  1.00  0.00     0.000 C 
ENDROOT
BRANCH   1   2
ATOM      2  C   UNL     1     -12.317 -14.029  14.861  1.00  0.00     0.000 C 
BRANCH   2   3
ATOM      3  C   UNL     1     -13.596 -14.125  14.017  1.00  0.00     0.000 C 
BRANCH   3   4
ATOM      4  C   UNL     1     -14.839 -13.574  14.738  1.00  0.00     0.006 C 
BRANCH   4   5
ATOM      5  C   UNL     1     -14.515 -12.637  15.914  1.00  0.00     0.053 C 
BRANCH   5   6
ATOM      6  C   UNL     1     -15.019 -13.161  17.223  1.00  0.00     0.041 C 
ATOM      7  O   UNL     1     -16.024 -13.920  17.258  1.00  0.00    -0.550 OA
ATOM      8  O   UNL     1     -14.359 -12.845  18.404  1.00  0.00    -0.550 OA
ENDBRANCH   5   6
ENDBRANCH   4   5
ENDBRANCH   3   4
ENDBRANCH   2   3
ENDBRANCH   1   2
BRANCH   1   9
ATOM      9  C   UNL     1     -10.487 -12.254  14.645  1.00  0.00     0.000 C 
BRANCH   9  10
ATOM     10  C   UNL     1      -9.744 -12.569  15.952  1.00  0.00    -0.000 C 
BRANCH  10  11
ATOM     11  C   UNL     1      -8.264 -12.180  15.849  1.00  0.00    -0.000 C 
BRANCH  11  12
ATOM     12  C   UNL     1      -7.970 -11.481  14.516  1.00  0.00    -0.000 C 
BRANCH  12  13
ATOM     13  C   UNL     1      -6.855 -12.204  13.750  1.00  0.00    -0.003 C 
ATOM     14  C   UNL     1      -5.631 -11.308  13.584  1.00  0.00     0.004 C 
ENDBRANCH  12  13
ENDBRANCH  11  12
ENDBRANCH  10  11
ENDBRANCH   9  10
ENDBRANCH   1   9
TORSDOF 10
ENDMDL
MODEL 8
REMARK VINA RESULT:    -4.164      3.784      5.674
REMARK INTER + INTRA:          -7.378
REMARK INTER:                  -6.539
REMARK INTRA:                  -0.839
REMARK UNBOUND:                -0.780
REMARK SMILES CCCCCCCCCCCC(=O)[O-]
REMARK SMILES IDX 7 1 8 2 9 3 10 4 11 5 12 6 13 7 14 8 6 9 5 10 4 11 3 12 2 13
REMARK SMILES IDX 1 14
REMARK H PARENT
REMARK Flexibility Score: inf
ROOT
ATOM      1  C   UNL     1     -16.140 -13.817  16.654  1.00  0.00     0.000 C 
ENDROOT
BRANCH   1   2
ATOM      2  C   UNL     1     -15.016 -12.877  17.117  1.00  0.00     0.000 C 
BRANCH   2   3
ATOM      3  C   UNL     1     -15.328 -12.288  18.500  1.00  0.00     0.000 C 
BRANCH   3   4
ATOM      4  C   UNL     1     -16.729 -12.665  19.016  1.00  0.00     0.006 C 
BRANCH   4   5
ATOM      5  C   UNL     1     -16.954 -12.345  20.504  1.00  0.00     0.053 C 
BRANCH   5   6
ATOM      6  C   UNL     1     -17.784 -11.114  20.708  1.00  0.00     0.041 C 
ATOM      7  O   UNL     1     -19.027 -11.148  20.509  1.00  0.00    -0.550 OA
ATOM      8  O   UNL     1     -17.193  -9.939  21.155  1.00  0.00    -0.550 OA
ENDBRANCH   5   6
ENDBRANCH   4   5
ENDBRANCH   3   4
ENDBRANCH   2   3
ENDBRANCH   1   2
BRANCH   1   9
ATOM      9  C   UNL     1     -16.313 -13.828  15.127  1.00  0.00     0.000 C 
BRANCH   9  10
ATOM     10  C   UNL     1     -15.973 -12.475  14.483  1.00  0.00    -0.000 C 
BRANCH  10  11
ATOM     11  C   UNL     1     -15.497 -12.661  13.037  1.00  0.00    -0.000 C 
BRANCH  11  12
ATOM     12  C   UNL     1     -14.186 -11.904  12.788  1.00  0.00    -0.000 C 
BRANCH  12  13
ATOM     13  C   UNL     1     -13.284 -11.945  14.026  1.00  0.00    -0.003 C 
ATOM     14  C   UNL     1     -12.373 -13.170  14.003  1.00  0.00     0.004 C 
ENDBRANCH  12  13
ENDBRANCH  11  12
ENDBRANCH  10  11
ENDBRANCH   9  10
ENDBRANCH   1   9
TORSDOF 10
ENDMDL
MODEL 9
REMARK VINA RESULT:    -4.151      1.832      2.377
REMARK INTER + INTRA:          -7.357
REMARK INTER:                  -6.670
REMARK INTRA:                  -0.687
REMARK UNBOUND:                -0.780
REMARK SMILES CCCCCCCCCCCC(=O)[O-]
REMARK SMILES IDX 7 1 8 2 9 3 10 4 11 5 12 6 13 7 14 8 6 9 5 10 4 11 3 12 2 13
REMARK SMILES IDX 1 14
REMARK H PARENT
REMARK Flexibility Score: inf
ROOT
ATOM      1  C   UNL     1     -13.254 -14.062  14.249  1.00  0.00     0.000 C 
ENDROOT
BRANCH   1   2
ATOM      2  C   UNL     1     -14.421 -13.700  13.317  1.00  0.00     0.000 C 
BRANCH   2   3
ATOM      3  C   UNL     1     -15.771 -13.968  13.997  1.00  0.00     0.000 C 
BRANCH   3   4
ATOM      4  C   UNL     1     -16.055 -13.015  15.172  1.00  0.00     0.006 C 
BRANCH   4   5
ATOM      5  C   UNL     1     -16.156 -13.718  16.537  1.00  0.00     0.053 C 
BRANCH   5   6
ATOM      6  C   UNL     1     -15.362 -13.025  17.601  1.00  0.00     0.041 C 
ATOM      7  O   UNL     1     -14.105 -13.092  17.600  1.00  0.00    -0.550 OA
ATOM      8  O   UNL     1     -16.007 -12.271  18.575  1.00  0.00    -0.550 OA
ENDBRANCH   5   6
ENDBRANCH   4   5
ENDBRANCH   3   4
ENDBRANCH   2   3
ENDBRANCH   1   2
BRANCH   1   9
ATOM      9  C   UNL     1     -12.302 -12.882  14.494  1.00  0.00     0.000 C 
BRANCH   9  10
ATOM     10  C   UNL     1     -11.277 -13.167  15.602  1.00  0.00    -0.000 C 
BRANCH  10  11
ATOM     11  C   UNL     1      -9.857 -13.244  15.030  1.00  0.00    -0.000 C 
BRANCH  11  12
ATOM     12  C   UNL     1      -8.832 -12.678  16.022  1.00  0.00    -0.000 C 
BRANCH  12  13
ATOM     13  C   UNL     1      -7.928 -11.641  15.344  1.00  0.00    -0.003 C 
ATOM     14  C   UNL     1      -8.697 -10.846  14.293  1.00  0.00     0.004 C 
ENDBRANCH  12  13
ENDBRANCH  11  12
ENDBRANCH  10  11
ENDBRANCH   9  10
ENDBRANCH   1   9
TORSDOF 10
ENDMDL
