MODEL 1
REMARK VINA RESULT:    -4.516      0.000      0.000
REMARK INTER + INTRA:         -16.061
REMARK INTER:                 -11.379
REMARK INTRA:                  -4.682
REMARK UNBOUND:                -4.682
REMARK SMILES CCCCCCCCCCCCCCCCCCCCCCCCCCCC(=O)[O-]
REMARK SMILES IDX 15 1 16 2 17 3 18 4 19 5 20 6 21 7 22 8 23 9 24 10 25 11
REMARK SMILES IDX 26 12 27 13 28 14 29 15 30 16 14 17 13 18 12 19 11 20 10 21
REMARK SMILES IDX 9 22 8 23 7 24 6 25 5 26 4 27 3 28 2 29 1 30
REMARK H PARENT
REMARK Flexibility Score: inf
ROOT
ATOM      1  C   UNL     1      13.985   4.339   1.448  1.00  0.00     0.000 C 
ENDROOT
BRANCH   1   2
ATOM      2  C   UNL     1      14.847   3.199   2.029  1.00  0.00     0.000 C 
BRANCH   2   3
ATOM      3  C   UNL     1      14.039   2.137   2.801  1.00  0.00     0.000 C 
BRANCH   3   4
ATOM      4  C   UNL     1      14.388   0.677   2.463  1.00  0.00     0.000 C 
BRANCH   4   5
ATOM      5  C   UNL     1      13.139  -0.197   2.241  1.00  0.00     0.000 C 
BRANCH   5   6
ATOM      6  C   UNL     1      12.137  -0.101   3.403  1.00  0.00     0.000 C 
BRANCH   6   7
ATOM      7  C   UNL     1      12.643  -0.793   4.680  1.00  0.00     0.000 C 
BRANCH   7   8
ATOM      8  C   UNL     1      12.167  -0.090   5.961  1.00  0.00     0.000 C 
BRANCH   8   9
ATOM      9  C   UNL     1      13.334   0.409   6.832  1.00  0.00     0.000 C 
BRANCH   9  10
ATOM     10  C   UNL     1      13.819   1.810   6.418  1.00  0.00     0.000 C 
BRANCH  10  11
ATOM     11  C   UNL     1      15.348   1.952   6.505  1.00  0.00     0.000 C 
BRANCH  11  12
ATOM     12  C   UNL     1      16.093   0.839   5.745  1.00  0.00     0.006 C 
BRANCH  12  13
ATOM     13  C   UNL     1      16.930  -0.090   6.638  1.00  0.00     0.053 C 
BRANCH  13  14
ATOM     14  C   UNL     1      18.249   0.521   7.002  1.00  0.00     0.041 C 
ATOM     15  O   UNL     1      19.279   0.252   6.331  1.00  0.00    -0.550 OA
ATOM     16  O   UNL     1      18.344   1.363   8.102  1.00  0.00    -0.550 OA
ENDBRANCH  13  14
ENDBRANCH  12  13
ENDBRANCH  11  12
ENDBRANCH  10  11
ENDBRANCH   9  10
ENDBRANCH   8   9
ENDBRANCH   7   8
ENDBRANCH   6   7
ENDBRANCH   5   6
ENDBRANCH   4   5
ENDBRANCH   3   4
ENDBRANCH   2   3
ENDBRANCH   1   2
BRANCH   1  17
ATOM     17  C   UNL     1      12.654   4.505   2.200  1.00  0.00     0.000 C 
BRANCH  17  18
ATOM     18  C   UNL     1      11.506   4.975   1.290  1.00  0.00     0.000 C 
BRANCH  18  19
ATOM     19  C   UNL     1      10.161   5.138   2.027  1.00  0.00     0.000 C 
BRANCH  19  20
ATOM     20  C   UNL     1       8.967   5.203   1.058  1.00  0.00     0.000 C 
BRANCH  20  21
ATOM     21  C   UNL     1       9.395   5.537  -0.381  1.00  0.00     0.000 C 
BRANCH  21  22
ATOM     22  C   UNL     1       9.072   4.406  -1.369  1.00  0.00    -0.000 C 
BRANCH  22  23
ATOM     23  C   UNL     1       8.353   3.249  -0.662  1.00  0.00    -0.000 C 
BRANCH  23  24
ATOM     24  C   UNL     1       9.085   1.919  -0.901  1.00  0.00    -0.000 C 
BRANCH  24  25
ATOM     25  C   UNL     1      10.340   1.766  -0.027  1.00  0.00    -0.000 C 
BRANCH  25  26
ATOM     26  C   UNL     1      11.545   1.211  -0.807  1.00  0.00    -0.000 C 
BRANCH  26  27
ATOM     27  C   UNL     1      12.554   2.306  -1.190  1.00  0.00    -0.000 C 
BRANCH  27  28
ATOM     28  C   UNL     1      13.718   1.765  -2.038  1.00  0.00    -0.000 C 
BRANCH  28  29
ATOM     29  C   UNL     1      14.894   1.273  -1.178  1.00  0.00    -0.003 C 
ATOM     30  C   UNL     1      16.143   2.141  -1.329  1.00  0.00     0.004 C 
ENDBRANCH  28  29
ENDBRANCH  27  28
ENDBRANCH  26  27
ENDBRANCH  25  26
ENDBRANCH  24  25
ENDBRANCH  23  24
ENDBRANCH  22  23
ENDBRANCH  21  22
ENDBRANCH  20  21
ENDBRANCH  19  20
ENDBRANCH  18  19
ENDBRANCH  17  18
ENDBRANCH   1  17
TORSDOF 26
ENDMDL
MODEL 2
REMARK VINA RESULT:    -4.379      1.212      4.013
REMARK INTER + INTRA:         -15.717
REMARK INTER:                 -11.675
REMARK INTRA:                  -4.042
REMARK UNBOUND:                -4.682
REMARK SMILES CCCCCCCCCCCCCCCCCCCCCCCCCCCC(=O)[O-]
REMARK SMILES IDX 15 1 16 2 17 3 18 4 19 5 20 6 21 7 22 8 23 9 24 10 25 11
REMARK SMILES IDX 26 12 27 13 28 14 29 15 30 16 14 17 13 18 12 19 11 20 10 21
REMARK SMILES IDX 9 22 8 23 7 24 6 25 5 26 4 27 3 28 2 29 1 30
REMARK H PARENT
REMARK Flexibility Score: inf
ROOT
ATOM      1  C   UNL     1      15.388   4.034  -0.733  1.00  0.00     0.000 C 
ENDROOT
BRANCH   1   2
ATOM      2  C   UNL     1      14.682   4.097   0.638  1.00  0.00     0.000 C 
BRANCH   2   3
ATOM      3  C   UNL     1      15.172   3.033   1.641  1.00  0.00     0.000 C 
BRANCH   3   4
ATOM      4  C   UNL     1      14.085   2.457   2.566  1.00  0.00     0.000 C 
BRANCH   4   5
ATOM      5  C   UNL     1      13.648   1.038   2.159  1.00  0.00     0.000 C 
BRANCH   5   6
ATOM      6  C   UNL     1      12.150   0.790   2.401  1.00  0.00     0.000 C 
BRANCH   6   7
ATOM      7  C   UNL     1      11.892  -0.302   3.453  1.00  0.00     0.000 C 
BRANCH   7   8
ATOM      8  C   UNL     1      13.002  -0.374   4.515  1.00  0.00     0.000 C 
BRANCH   8   9
ATOM      9  C   UNL     1      12.518   0.064   5.909  1.00  0.00     0.000 C 
BRANCH   9  10
ATOM     10  C   UNL     1      13.458   1.092   6.561  1.00  0.00     0.000 C 
BRANCH  10  11
ATOM     11  C   UNL     1      14.898   0.994   6.029  1.00  0.00     0.000 C 
BRANCH  11  12
ATOM     12  C   UNL     1      15.775   2.182   6.464  1.00  0.00     0.006 C 
BRANCH  12  13
ATOM     13  C   UNL     1      17.220   2.129   5.943  1.00  0.00     0.053 C 
BRANCH  13  14
ATOM     14  C   UNL     1      18.083   1.227   6.771  1.00  0.00     0.041 C 
ATOM     15  O   UNL     1      18.770   0.326   6.222  1.00  0.00    -0.550 OA
ATOM     16  O   UNL     1      18.105   1.363   8.153  1.00  0.00    -0.550 OA
ENDBRANCH  13  14
ENDBRANCH  12  13
ENDBRANCH  11  12
ENDBRANCH  10  11
ENDBRANCH   9  10
ENDBRANCH   8   9
ENDBRANCH   7   8
ENDBRANCH   6   7
ENDBRANCH   5   6
ENDBRANCH   4   5
ENDBRANCH   3   4
ENDBRANCH   2   3
ENDBRANCH   1   2
BRANCH   1  17
ATOM     17  C   UNL     1      15.071   2.736  -1.493  1.00  0.00     0.000 C 
BRANCH  17  18
ATOM     18  C   UNL     1      16.315   1.865  -1.737  1.00  0.00     0.000 C 
BRANCH  18  19
ATOM     19  C   UNL     1      15.983   0.419  -2.163  1.00  0.00     0.000 C 
BRANCH  19  20
ATOM     20  C   UNL     1      14.467   0.174  -2.270  1.00  0.00     0.000 C 
BRANCH  20  21
ATOM     21  C   UNL     1      13.949  -0.788  -1.189  1.00  0.00     0.000 C 
BRANCH  21  22
ATOM     22  C   UNL     1      12.426  -0.707  -1.010  1.00  0.00    -0.000 C 
BRANCH  22  23
ATOM     23  C   UNL     1      11.866   0.574  -1.641  1.00  0.00    -0.000 C 
BRANCH  23  24
ATOM     24  C   UNL     1      10.331   0.526  -1.714  1.00  0.00    -0.000 C 
BRANCH  24  25
ATOM     25  C   UNL     1       9.659   1.140  -0.476  1.00  0.00    -0.000 C 
BRANCH  25  26
ATOM     26  C   UNL     1       8.703   2.294  -0.829  1.00  0.00    -0.000 C 
BRANCH  26  27
ATOM     27  C   UNL     1       9.420   3.653  -0.892  1.00  0.00    -0.000 C 
BRANCH  27  28
ATOM     28  C   UNL     1      10.656   3.711   0.021  1.00  0.00    -0.000 C 
BRANCH  28  29
ATOM     29  C   UNL     1      10.331   4.262   1.420  1.00  0.00    -0.003 C 
ATOM     30  C   UNL     1      11.497   5.031   2.040  1.00  0.00     0.004 C 
ENDBRANCH  28  29
ENDBRANCH  27  28
ENDBRANCH  26  27
ENDBRANCH  25  26
ENDBRANCH  24  25
ENDBRANCH  23  24
ENDBRANCH  22  23
ENDBRANCH  21  22
ENDBRANCH  20  21
ENDBRANCH  19  20
ENDBRANCH  18  19
ENDBRANCH  17  18
ENDBRANCH   1  17
TORSDOF 26
ENDMDL
MODEL 3
REMARK VINA RESULT:    -4.374      1.233      2.671
REMARK INTER + INTRA:         -15.705
REMARK INTER:                 -10.684
REMARK INTRA:                  -5.021
REMARK UNBOUND:                -4.682
REMARK SMILES CCCCCCCCCCCCCCCCCCCCCCCCCCCC(=O)[O-]
REMARK SMILES IDX 15 1 16 2 17 3 18 4 19 5 20 6 21 7 22 8 23 9 24 10 25 11
REMARK SMILES IDX 26 12 27 13 28 14 29 15 30 16 14 17 13 18 12 19 11 20 10 21
REMARK SMILES IDX 9 22 8 23 7 24 6 25 5 26 4 27 3 28 2 29 1 30
REMARK H PARENT
REMARK Flexibility Score: inf
ROOT
ATOM      1  C   UNL     1      11.788   4.450   1.232  1.00  0.00     0.000 C 
ENDROOT
BRANCH   1   2
ATOM      2  C   UNL     1      12.849   4.322   2.345  1.00  0.00     0.000 C 
BRANCH   2   3
ATOM      3  C   UNL     1      14.262   3.988   1.824  1.00  0.00     0.000 C 
BRANCH   3   4
ATOM      4  C   UNL     1      14.934   2.775   2.491  1.00  0.00     0.000 C 
BRANCH   4   5
ATOM      5  C   UNL     1      13.917   1.752   3.028  1.00  0.00     0.000 C 
BRANCH   5   6
ATOM      6  C   UNL     1      14.355   0.299   2.781  1.00  0.00     0.000 C 
BRANCH   6   7
ATOM      7  C   UNL     1      13.369  -0.726   3.369  1.00  0.00     0.000 C 
BRANCH   7   8
ATOM      8  C   UNL     1      12.158  -0.061   4.045  1.00  0.00     0.000 C 
BRANCH   8   9
ATOM      9  C   UNL     1      11.966  -0.520   5.501  1.00  0.00     0.000 C 
BRANCH   9  10
ATOM     10  C   UNL     1      12.703   0.384   6.505  1.00  0.00     0.000 C 
BRANCH  10  11
ATOM     11  C   UNL     1      13.990  -0.263   7.045  1.00  0.00     0.000 C 
BRANCH  11  12
ATOM     12  C   UNL     1      15.259   0.274   6.358  1.00  0.00     0.006 C 
BRANCH  12  13
ATOM     13  C   UNL     1      15.437   1.797   6.453  1.00  0.00     0.053 C 
BRANCH  13  14
ATOM     14  C   UNL     1      16.835   2.220   6.119  1.00  0.00     0.041 C 
ATOM     15  O   UNL     1      17.037   3.232   5.398  1.00  0.00    -0.550 OA
ATOM     16  O   UNL     1      17.915   1.479   6.582  1.00  0.00    -0.550 OA
ENDBRANCH  13  14
ENDBRANCH  12  13
ENDBRANCH  11  12
ENDBRANCH  10  11
ENDBRANCH   9  10
ENDBRANCH   8   9
ENDBRANCH   7   8
ENDBRANCH   6   7
ENDBRANCH   5   6
ENDBRANCH   4   5
ENDBRANCH   3   4
ENDBRANCH   2   3
ENDBRANCH   1   2
BRANCH   1  17
ATOM     17  C   UNL     1      10.416   4.879   1.780  1.00  0.00     0.000 C 
BRANCH  17  18
ATOM     18  C   UNL     1       9.379   5.127   0.672  1.00  0.00     0.000 C 
BRANCH  18  19
ATOM     19  C   UNL     1       9.765   4.504  -0.686  1.00  0.00     0.000 C 
BRANCH  19  20
ATOM     20  C   UNL     1       8.977   3.215  -0.984  1.00  0.00     0.000 C 
BRANCH  20  21
ATOM     21  C   UNL     1       9.879   1.970  -1.016  1.00  0.00     0.000 C 
BRANCH  21  22
ATOM     22  C   UNL     1      10.134   1.391   0.384  1.00  0.00    -0.000 C 
BRANCH  22  23
ATOM     23  C   UNL     1      11.430   0.570   0.410  1.00  0.00    -0.000 C 
BRANCH  23  24
ATOM     24  C   UNL     1      12.046   0.469  -0.994  1.00  0.00    -0.000 C 
BRANCH  24  25
ATOM     25  C   UNL     1      13.174  -0.572  -1.074  1.00  0.00    -0.000 C 
BRANCH  25  26
ATOM     26  C   UNL     1      14.534   0.051  -1.434  1.00  0.00    -0.000 C 
BRANCH  26  27
ATOM     27  C   UNL     1      14.768   1.400  -0.734  1.00  0.00    -0.000 C 
BRANCH  27  28
ATOM     28  C   UNL     1      15.638   2.355  -1.569  1.00  0.00    -0.000 C 
BRANCH  28  29
ATOM     29  C   UNL     1      14.960   3.715  -1.806  1.00  0.00    -0.003 C 
ATOM     30  C   UNL     1      13.453   3.595  -2.031  1.00  0.00     0.004 C 
ENDBRANCH  28  29
ENDBRANCH  27  28
ENDBRANCH  26  27
ENDBRANCH  25  26
ENDBRANCH  24  25
ENDBRANCH  23  24
ENDBRANCH  22  23
ENDBRANCH  21  22
ENDBRANCH  20  21
ENDBRANCH  19  20
ENDBRANCH  18  19
ENDBRANCH  17  18
ENDBRANCH   1  17
TORSDOF 26
ENDMDL
MODEL 4
REMARK VINA RESULT:    -4.357      3.420      6.376
REMARK INTER + INTRA:         -15.661
REMARK INTER:                 -10.882
REMARK INTRA:                  -4.779
REMARK UNBOUND:                -4.682
REMARK SMILES CCCCCCCCCCCCCCCCCCCCCCCCCCCC(=O)[O-]
REMARK SMILES IDX 15 1 16 2 17 3 18 4 19 5 20 6 21 7 22 8 23 9 24 10 25 11
REMARK SMILES IDX 26 12 27 13 28 14 29 15 30 16 14 17 13 18 12 19 11 20 10 21
REMARK SMILES IDX 9 22 8 23 7 24 6 25 5 26 4 27 3 28 2 29 1 30
REMARK H PARENT
REMARK Flexibility Score: inf
ROOT
ATOM      1  C   UNL     1      16.032   2.058   5.114  1.00  0.00     0.000 C 
ENDROOT
BRANCH   1   2
ATOM      2  C   UNL     1      15.330   1.876   6.476  1.00  0.00     0.000 C 
BRANCH   2   3
ATOM      3  C   UNL     1      13.790   1.865   6.387  1.00  0.00     0.000 C 
BRANCH   3   4
ATOM      4  C   UNL     1      13.113   0.598   6.938  1.00  0.00     0.000 C 
BRANCH   4   5
ATOM      5  C   UNL     1      12.519  -0.289   5.828  1.00  0.00     0.000 C 
BRANCH   5   6
ATOM      6  C   UNL     1      10.999  -0.473   5.971  1.00  0.00     0.000 C 
BRANCH   6   7
ATOM      7  C   UNL     1      10.308  -0.762   4.627  1.00  0.00     0.000 C 
BRANCH   7   8
ATOM      8  C   UNL     1      11.204  -0.436   3.420  1.00  0.00     0.000 C 
BRANCH   8   9
ATOM      9  C   UNL     1      10.394  -0.102   2.155  1.00  0.00     0.000 C 
BRANCH   9  10
ATOM     10  C   UNL     1       9.094   0.658   2.472  1.00  0.00     0.000 C 
BRANCH  10  11
ATOM     11  C   UNL     1       8.696   1.635   1.352  1.00  0.00     0.000 C 
BRANCH  11  12
ATOM     12  C   UNL     1       9.732   2.754   1.142  1.00  0.00     0.006 C 
BRANCH  12  13
ATOM     13  C   UNL     1       9.258   3.896   0.230  1.00  0.00     0.053 C 
BRANCH  13  14
ATOM     14  C   UNL     1       9.588   5.242   0.798  1.00  0.00     0.041 C 
ATOM     15  O   UNL     1       9.947   5.353   1.999  1.00  0.00    -0.550 OA
ATOM     16  O   UNL     1       9.470   6.378   0.007  1.00  0.00    -0.550 OA
ENDBRANCH  13  14
ENDBRANCH  12  13
ENDBRANCH  11  12
ENDBRANCH  10  11
ENDBRANCH   9  10
ENDBRANCH   8   9
ENDBRANCH   7   8
ENDBRANCH   6   7
ENDBRANCH   5   6
ENDBRANCH   4   5
ENDBRANCH   3   4
ENDBRANCH   2   3
ENDBRANCH   1   2
BRANCH   1  17
ATOM     17  C   UNL     1      15.382   1.214   4.005  1.00  0.00     0.000 C 
BRANCH  17  18
ATOM     18  C   UNL     1      14.999   2.043   2.768  1.00  0.00     0.000 C 
BRANCH  18  19
ATOM     19  C   UNL     1      13.486   2.323   2.656  1.00  0.00     0.000 C 
BRANCH  19  20
ATOM     20  C   UNL     1      13.187   3.627   1.894  1.00  0.00     0.000 C 
BRANCH  20  21
ATOM     21  C   UNL     1      14.370   4.084   1.023  1.00  0.00     0.000 C 
BRANCH  21  22
ATOM     22  C   UNL     1      14.124   3.847  -0.474  1.00  0.00    -0.000 C 
BRANCH  22  23
ATOM     23  C   UNL     1      15.445   3.608  -1.217  1.00  0.00    -0.000 C 
BRANCH  23  24
ATOM     24  C   UNL     1      16.046   2.243  -0.843  1.00  0.00    -0.000 C 
BRANCH  24  25
ATOM     25  C   UNL     1      16.044   1.252  -2.017  1.00  0.00    -0.000 C 
BRANCH  25  26
ATOM     26  C   UNL     1      15.039   0.102  -1.822  1.00  0.00    -0.000 C 
BRANCH  26  27
ATOM     27  C   UNL     1      14.246   0.228  -0.511  1.00  0.00    -0.000 C 
BRANCH  27  28
ATOM     28  C   UNL     1      12.764  -0.147  -0.679  1.00  0.00    -0.000 C 
BRANCH  28  29
ATOM     29  C   UNL     1      11.906   1.039  -1.150  1.00  0.00    -0.003 C 
ATOM     30  C   UNL     1      10.627   0.600  -1.863  1.00  0.00     0.004 C 
ENDBRANCH  28  29
ENDBRANCH  27  28
ENDBRANCH  26  27
ENDBRANCH  25  26
ENDBRANCH  24  25
ENDBRANCH  23  24
ENDBRANCH  22  23
ENDBRANCH  21  22
ENDBRANCH  20  21
ENDBRANCH  19  20
ENDBRANCH  18  19
ENDBRANCH  17  18
ENDBRANCH   1  17
TORSDOF 26
ENDMDL
MODEL 5
REMARK VINA RESULT:    -4.356      1.416      4.539
REMARK INTER + INTRA:         -15.658
REMARK INTER:                 -10.998
REMARK INTRA:                  -4.660
REMARK UNBOUND:                -4.682
REMARK SMILES CCCCCCCCCCCCCCCCCCCCCCCCCCCC(=O)[O-]
REMARK SMILES IDX 15 1 16 2 17 3 18 4 19 5 20 6 21 7 22 8 23 9 24 10 25 11
REMARK SMILES IDX 26 12 27 13 28 14 29 15 30 16 14 17 13 18 12 19 11 20 10 21
REMARK SMILES IDX 9 22 8 23 7 24 6 25 5 26 4 27 3 28 2 29 1 30
REMARK H PARENT
REMARK Flexibility Score: inf
ROOT
ATOM      1  C   UNL     1      14.573   3.961  -1.998  1.00  0.00     0.000 C 
ENDROOT
BRANCH   1   2
ATOM      2  C   UNL     1      13.165   3.560  -2.488  1.00  0.00     0.000 C 
BRANCH   2   3
ATOM      3  C   UNL     1      12.504   2.450  -1.646  1.00  0.00     0.000 C 
BRANCH   3   4
ATOM      4  C   UNL     1      12.438   1.070  -2.322  1.00  0.00     0.000 C 
BRANCH   4   5
ATOM      5  C   UNL     1      12.584  -0.091  -1.321  1.00  0.00     0.000 C 
BRANCH   5   6
ATOM      6  C   UNL     1      12.787   0.397   0.122  1.00  0.00     0.000 C 
BRANCH   6   7
ATOM      7  C   UNL     1      11.561   0.136   1.014  1.00  0.00     0.000 C 
BRANCH   7   8
ATOM      8  C   UNL     1      11.939  -0.460   2.380  1.00  0.00     0.000 C 
BRANCH   8   9
ATOM      9  C   UNL     1      13.455  -0.413   2.647  1.00  0.00     0.000 C 
BRANCH   9  10
ATOM     10  C   UNL     1      13.795  -0.603   4.136  1.00  0.00     0.000 C 
BRANCH  10  11
ATOM     11  C   UNL     1      14.018   0.734   4.864  1.00  0.00     0.000 C 
BRANCH  11  12
ATOM     12  C   UNL     1      15.496   1.166   4.874  1.00  0.00     0.006 C 
BRANCH  12  13
ATOM     13  C   UNL     1      16.302   0.646   6.075  1.00  0.00     0.053 C 
BRANCH  13  14
ATOM     14  C   UNL     1      17.362   1.615   6.501  1.00  0.00     0.041 C 
ATOM     15  O   UNL     1      17.417   2.762   5.986  1.00  0.00    -0.550 OA
ATOM     16  O   UNL     1      18.308   1.239   7.446  1.00  0.00    -0.550 OA
ENDBRANCH  13  14
ENDBRANCH  12  13
ENDBRANCH  11  12
ENDBRANCH  10  11
ENDBRANCH   9  10
ENDBRANCH   8   9
ENDBRANCH   7   8
ENDBRANCH   6   7
ENDBRANCH   5   6
ENDBRANCH   4   5
ENDBRANCH   3   4
ENDBRANCH   2   3
ENDBRANCH   1   2
BRANCH   1  17
ATOM     17  C   UNL     1      15.468   2.738  -1.734  1.00  0.00     0.000 C 
BRANCH  17  18
ATOM     18  C   UNL     1      15.924   2.635  -0.269  1.00  0.00     0.000 C 
BRANCH  18  19
ATOM     19  C   UNL     1      15.242   3.657   0.664  1.00  0.00     0.000 C 
BRANCH  19  20
ATOM     20  C   UNL     1      14.849   3.041   2.019  1.00  0.00     0.000 C 
BRANCH  20  21
ATOM     21  C   UNL     1      13.380   3.315   2.385  1.00  0.00     0.000 C 
BRANCH  21  22
ATOM     22  C   UNL     1      12.655   4.153   1.322  1.00  0.00    -0.000 C 
BRANCH  22  23
ATOM     23  C   UNL     1      11.614   5.077   1.968  1.00  0.00    -0.000 C 
BRANCH  23  24
ATOM     24  C   UNL     1      10.230   4.409   2.000  1.00  0.00    -0.000 C 
BRANCH  24  25
ATOM     25  C   UNL     1      10.083   3.297   0.950  1.00  0.00    -0.000 C 
BRANCH  25  26
ATOM     26  C   UNL     1       8.766   3.397   0.159  1.00  0.00    -0.000 C 
BRANCH  26  27
ATOM     27  C   UNL     1       8.987   3.817  -1.304  1.00  0.00    -0.000 C 
BRANCH  27  28
ATOM     28  C   UNL     1       9.318   5.313  -1.444  1.00  0.00    -0.000 C 
BRANCH  28  29
ATOM     29  C   UNL     1       8.132   6.216  -1.066  1.00  0.00    -0.003 C 
ATOM     30  C   UNL     1       8.400   7.054   0.184  1.00  0.00     0.004 C 
ENDBRANCH  28  29
ENDBRANCH  27  28
ENDBRANCH  26  27
ENDBRANCH  25  26
ENDBRANCH  24  25
ENDBRANCH  23  24
ENDBRANCH  22  23
ENDBRANCH  21  22
ENDBRANCH  20  21
ENDBRANCH  19  20
ENDBRANCH  18  19
ENDBRANCH  17  18
ENDBRANCH   1  17
TORSDOF 26
ENDMDL
MODEL 6
REMARK VINA RESULT:    -4.335      1.121      4.712
REMARK INTER + INTRA:         -15.605
REMARK INTER:                 -11.676
REMARK INTRA:                  -3.929
REMARK UNBOUND:                -4.682
REMARK SMILES CCCCCCCCCCCCCCCCCCCCCCCCCCCC(=O)[O-]
REMARK SMILES IDX 15 1 16 2 17 3 18 4 19 5 20 6 21 7 22 8 23 9 24 10 25 11
REMARK SMILES IDX 26 12 27 13 28 14 29 15 30 16 14 17 13 18 12 19 11 20 10 21
REMARK SMILES IDX 9 22 8 23 7 24 6 25 5 26 4 27 3 28 2 29 1 30
REMARK H PARENT
REMARK Flexibility Score: inf
ROOT
ATOM      1  C   UNL     1      13.001   1.659  -2.349  1.00  0.00     0.000 C 
ENDROOT
BRANCH   1   2
ATOM      2  C   UNL     1      11.635   0.969  -2.154  1.00  0.00     0.000 C 
BRANCH   2   3
ATOM      3  C   UNL     1      10.907   1.381  -0.859  1.00  0.00     0.000 C 
BRANCH   3   4
ATOM      4  C   UNL     1      11.068   0.405   0.319  1.00  0.00     0.000 C 
BRANCH   4   5
ATOM      5  C   UNL     1      12.106   0.883   1.351  1.00  0.00     0.000 C 
BRANCH   5   6
ATOM      6  C   UNL     1      13.325  -0.051   1.437  1.00  0.00     0.000 C 
BRANCH   6   7
ATOM      7  C   UNL     1      13.703  -0.400   2.886  1.00  0.00     0.000 C 
BRANCH   7   8
ATOM      8  C   UNL     1      12.867   0.374   3.918  1.00  0.00     0.000 C 
BRANCH   8   9
ATOM      9  C   UNL     1      13.064  -0.148   5.353  1.00  0.00     0.000 C 
BRANCH   9  10
ATOM     10  C   UNL     1      13.479   0.964   6.331  1.00  0.00     0.000 C 
BRANCH  10  11
ATOM     11  C   UNL     1      14.488   1.947   5.712  1.00  0.00     0.000 C 
BRANCH  11  12
ATOM     12  C   UNL     1      15.836   1.283   5.377  1.00  0.00     0.006 C 
BRANCH  12  13
ATOM     13  C   UNL     1      17.041   1.879   6.122  1.00  0.00     0.053 C 
BRANCH  13  14
ATOM     14  C   UNL     1      17.945   0.816   6.667  1.00  0.00     0.041 C 
ATOM     15  O   UNL     1      19.172   1.047   6.825  1.00  0.00    -0.550 OA
ATOM     16  O   UNL     1      17.436  -0.440   6.973  1.00  0.00    -0.550 OA
ENDBRANCH  13  14
ENDBRANCH  12  13
ENDBRANCH  11  12
ENDBRANCH  10  11
ENDBRANCH   9  10
ENDBRANCH   8   9
ENDBRANCH   7   8
ENDBRANCH   6   7
ENDBRANCH   5   6
ENDBRANCH   4   5
ENDBRANCH   3   4
ENDBRANCH   2   3
ENDBRANCH   1   2
BRANCH   1  17
ATOM     17  C   UNL     1      14.179   0.703  -2.095  1.00  0.00     0.000 C 
BRANCH  17  18
ATOM     18  C   UNL     1      15.375   1.392  -1.418  1.00  0.00     0.000 C 
BRANCH  18  19
ATOM     19  C   UNL     1      15.392   2.924  -1.606  1.00  0.00     0.000 C 
BRANCH  19  20
ATOM     20  C   UNL     1      15.566   3.675  -0.273  1.00  0.00     0.000 C 
BRANCH  20  21
ATOM     21  C   UNL     1      15.410   2.752   0.947  1.00  0.00     0.000 C 
BRANCH  21  22
ATOM     22  C   UNL     1      14.640   3.419   2.096  1.00  0.00    -0.000 C 
BRANCH  22  23
ATOM     23  C   UNL     1      13.837   4.625   1.591  1.00  0.00    -0.000 C 
BRANCH  23  24
ATOM     24  C   UNL     1      12.425   4.639   2.199  1.00  0.00    -0.000 C 
BRANCH  24  25
ATOM     25  C   UNL     1      11.324   4.423   1.149  1.00  0.00    -0.000 C 
BRANCH  25  26
ATOM     26  C   UNL     1       9.908   4.518   1.744  1.00  0.00    -0.000 C 
BRANCH  26  27
ATOM     27  C   UNL     1       8.834   3.946   0.804  1.00  0.00    -0.000 C 
BRANCH  27  28
ATOM     28  C   UNL     1       8.078   5.045   0.036  1.00  0.00    -0.000 C 
BRANCH  28  29
ATOM     29  C   UNL     1       9.022   6.089  -0.582  1.00  0.00    -0.003 C 
ATOM     30  C   UNL     1       9.138   5.959  -2.100  1.00  0.00     0.004 C 
ENDBRANCH  28  29
ENDBRANCH  27  28
ENDBRANCH  26  27
ENDBRANCH  25  26
ENDBRANCH  24  25
ENDBRANCH  23  24
ENDBRANCH  22  23
ENDBRANCH  21  22
ENDBRANCH  20  21
ENDBRANCH  19  20
ENDBRANCH  18  19
ENDBRANCH  17  18
ENDBRANCH   1  17
TORSDOF 26
ENDMDL
MODEL 7
REMARK VINA RESULT:    -4.313      2.461      7.478
REMARK INTER + INTRA:         -15.550
REMARK INTER:                 -10.518
REMARK INTRA:                  -5.032
REMARK UNBOUND:                -4.682
REMARK SMILES CCCCCCCCCCCCCCCCCCCCCCCCCCCC(=O)[O-]
REMARK SMILES IDX 15 1 16 2 17 3 18 4 19 5 20 6 21 7 22 8 23 9 24 10 25 11
REMARK SMILES IDX 26 12 27 13 28 14 29 15 30 16 14 17 13 18 12 19 11 20 10 21
REMARK SMILES IDX 9 22 8 23 7 24 6 25 5 26 4 27 3 28 2 29 1 30
REMARK H PARENT
REMARK Flexibility Score: inf
ROOT
ATOM      1  C   UNL     1      13.087   4.523   2.013  1.00  0.00     0.000 C 
ENDROOT
BRANCH   1   2
ATOM      2  C   UNL     1      11.810   4.843   1.208  1.00  0.00     0.000 C 
BRANCH   2   3
ATOM      3  C   UNL     1      10.527   4.884   2.063  1.00  0.00     0.000 C 
BRANCH   3   4
ATOM      4  C   UNL     1       9.244   5.254   1.299  1.00  0.00     0.000 C 
BRANCH   4   5
ATOM      5  C   UNL     1       9.522   5.716  -0.144  1.00  0.00     0.000 C 
BRANCH   5   6
ATOM      6  C   UNL     1       8.945   4.752  -1.193  1.00  0.00     0.000 C 
BRANCH   6   7
ATOM      7  C   UNL     1       8.201   3.563  -0.561  1.00  0.00     0.000 C 
BRANCH   7   8
ATOM      8  C   UNL     1       8.871   2.215  -0.872  1.00  0.00     0.000 C 
BRANCH   8   9
ATOM      9  C   UNL     1       9.578   1.607   0.353  1.00  0.00     0.000 C 
BRANCH   9  10
ATOM     10  C   UNL     1      11.050   1.260   0.070  1.00  0.00     0.000 C 
BRANCH  10  11
ATOM     11  C   UNL     1      11.637   2.086  -1.087  1.00  0.00     0.000 C 
BRANCH  11  12
ATOM     12  C   UNL     1      13.167   1.950  -1.198  1.00  0.00     0.006 C 
BRANCH  12  13
ATOM     13  C   UNL     1      13.894   3.248  -1.586  1.00  0.00     0.053 C 
BRANCH  13  14
ATOM     14  C   UNL     1      15.310   3.264  -1.100  1.00  0.00     0.041 C 
ATOM     15  O   UNL     1      15.696   4.158  -0.301  1.00  0.00    -0.550 OA
ATOM     16  O   UNL     1      16.212   2.310  -1.552  1.00  0.00    -0.550 OA
ENDBRANCH  13  14
ENDBRANCH  12  13
ENDBRANCH  11  12
ENDBRANCH  10  11
ENDBRANCH   9  10
ENDBRANCH   8   9
ENDBRANCH   7   8
ENDBRANCH   6   7
ENDBRANCH   5   6
ENDBRANCH   4   5
ENDBRANCH   3   4
ENDBRANCH   2   3
ENDBRANCH   1   2
BRANCH   1  17
ATOM     17  C   UNL     1      13.218   3.024   2.328  1.00  0.00     0.000 C 
BRANCH  17  18
ATOM     18  C   UNL     1      14.596   2.650   2.898  1.00  0.00     0.000 C 
BRANCH  18  19
ATOM     19  C   UNL     1      14.986   1.177   2.654  1.00  0.00     0.000 C 
BRANCH  19  20
ATOM     20  C   UNL     1      13.794   0.327   2.177  1.00  0.00     0.000 C 
BRANCH  20  21
ATOM     21  C   UNL     1      13.308  -0.660   3.251  1.00  0.00     0.000 C 
BRANCH  21  22
ATOM     22  C   UNL     1      11.916  -0.304   3.793  1.00  0.00    -0.000 C 
BRANCH  22  23
ATOM     23  C   UNL     1      11.896  -0.349   5.327  1.00  0.00    -0.000 C 
BRANCH  23  24
ATOM     24  C   UNL     1      13.112   0.385   5.915  1.00  0.00    -0.000 C 
BRANCH  24  25
ATOM     25  C   UNL     1      13.604  -0.240   7.230  1.00  0.00    -0.000 C 
BRANCH  25  26
ATOM     26  C   UNL     1      14.992  -0.892   7.096  1.00  0.00    -0.000 C 
BRANCH  26  27
ATOM     27  C   UNL     1      15.843  -0.243   5.992  1.00  0.00    -0.000 C 
BRANCH  27  28
ATOM     28  C   UNL     1      17.307  -0.037   6.420  1.00  0.00    -0.000 C 
BRANCH  28  29
ATOM     29  C   UNL     1      17.693   1.449   6.501  1.00  0.00    -0.003 C 
ATOM     30  C   UNL     1      16.593   2.377   5.986  1.00  0.00     0.004 C 
ENDBRANCH  28  29
ENDBRANCH  27  28
ENDBRANCH  26  27
ENDBRANCH  25  26
ENDBRANCH  24  25
ENDBRANCH  23  24
ENDBRANCH  22  23
ENDBRANCH  21  22
ENDBRANCH  20  21
ENDBRANCH  19  20
ENDBRANCH  18  19
ENDBRANCH  17  18
ENDBRANCH   1  17
TORSDOF 26
ENDMDL
MODEL 8
REMARK VINA RESULT:    -4.308      3.687      6.406
REMARK INTER + INTRA:         -15.537
REMARK INTER:                 -10.386
REMARK INTRA:                  -5.151
REMARK UNBOUND:                -4.682
REMARK SMILES CCCCCCCCCCCCCCCCCCCCCCCCCCCC(=O)[O-]
REMARK SMILES IDX 15 1 16 2 17 3 18 4 19 5 20 6 21 7 22 8 23 9 24 10 25 11
REMARK SMILES IDX 26 12 27 13 28 14 29 15 30 16 14 17 13 18 12 19 11 20 10 21
REMARK SMILES IDX 9 22 8 23 7 24 6 25 5 26 4 27 3 28 2 29 1 30
REMARK H PARENT
REMARK Flexibility Score: inf
ROOT
ATOM      1  C   UNL     1      15.758   1.895   5.241  1.00  0.00     0.000 C 
ENDROOT
BRANCH   1   2
ATOM      2  C   UNL     1      15.044   1.356   6.498  1.00  0.00     0.000 C 
BRANCH   2   3
ATOM      3  C   UNL     1      13.506   1.439   6.426  1.00  0.00     0.000 C 
BRANCH   3   4
ATOM      4  C   UNL     1      12.775   0.087   6.483  1.00  0.00     0.000 C 
BRANCH   4   5
ATOM      5  C   UNL     1      12.067  -0.264   5.161  1.00  0.00     0.000 C 
BRANCH   5   6
ATOM      6  C   UNL     1      10.600  -0.675   5.368  1.00  0.00     0.000 C 
BRANCH   6   7
ATOM      7  C   UNL     1       9.737  -0.443   4.115  1.00  0.00     0.000 C 
BRANCH   7   8
ATOM      8  C   UNL     1      10.568  -0.000   2.900  1.00  0.00     0.000 C 
BRANCH   8   9
ATOM      9  C   UNL     1       9.811  -0.172   1.570  1.00  0.00     0.000 C 
BRANCH   9  10
ATOM     10  C   UNL     1       8.804   0.963   1.316  1.00  0.00     0.000 C 
BRANCH  10  11
ATOM     11  C   UNL     1       8.694   1.329  -0.174  1.00  0.00     0.000 C 
BRANCH  11  12
ATOM     12  C   UNL     1       7.968   2.667  -0.406  1.00  0.00     0.006 C 
BRANCH  12  13
ATOM     13  C   UNL     1       8.478   3.826   0.465  1.00  0.00     0.053 C 
BRANCH  13  14
ATOM     14  C   UNL     1       9.011   4.956  -0.361  1.00  0.00     0.041 C 
ATOM     15  O   UNL     1       9.444   5.999   0.195  1.00  0.00    -0.550 OA
ATOM     16  O   UNL     1       9.003   4.868  -1.747  1.00  0.00    -0.550 OA
ENDBRANCH  13  14
ENDBRANCH  12  13
ENDBRANCH  11  12
ENDBRANCH  10  11
ENDBRANCH   9  10
ENDBRANCH   8   9
ENDBRANCH   7   8
ENDBRANCH   6   7
ENDBRANCH   5   6
ENDBRANCH   4   5
ENDBRANCH   3   4
ENDBRANCH   2   3
ENDBRANCH   1   2
BRANCH   1  17
ATOM     17  C   UNL     1      15.364   1.124   3.971  1.00  0.00     0.000 C 
BRANCH  17  18
ATOM     18  C   UNL     1      15.001   2.048   2.797  1.00  0.00     0.000 C 
BRANCH  18  19
ATOM     19  C   UNL     1      13.500   2.400   2.729  1.00  0.00     0.000 C 
BRANCH  19  20
ATOM     20  C   UNL     1      13.262   3.882   2.385  1.00  0.00     0.000 C 
BRANCH  20  21
ATOM     21  C   UNL     1      12.356   4.061   1.155  1.00  0.00     0.000 C 
BRANCH  21  22
ATOM     22  C   UNL     1      11.967   2.723   0.510  1.00  0.00    -0.000 C 
BRANCH  22  23
ATOM     23  C   UNL     1      11.947   2.836  -1.020  1.00  0.00    -0.000 C 
BRANCH  23  24
ATOM     24  C   UNL     1      12.365   1.510  -1.675  1.00  0.00    -0.000 C 
BRANCH  24  25
ATOM     25  C   UNL     1      12.758   0.438  -0.647  1.00  0.00    -0.000 C 
BRANCH  25  26
ATOM     26  C   UNL     1      14.267   0.132  -0.655  1.00  0.00    -0.000 C 
BRANCH  26  27
ATOM     27  C   UNL     1      14.944   0.541  -1.974  1.00  0.00    -0.000 C 
BRANCH  27  28
ATOM     28  C   UNL     1      16.176   1.435  -1.751  1.00  0.00    -0.000 C 
BRANCH  28  29
ATOM     29  C   UNL     1      15.988   2.417  -0.583  1.00  0.00    -0.003 C 
ATOM     30  C   UNL     1      15.379   3.749  -1.019  1.00  0.00     0.004 C 
ENDBRANCH  28  29
ENDBRANCH  27  28
ENDBRANCH  26  27
ENDBRANCH  25  26
ENDBRANCH  24  25
ENDBRANCH  23  24
ENDBRANCH  22  23
ENDBRANCH  21  22
ENDBRANCH  20  21
ENDBRANCH  19  20
ENDBRANCH  18  19
ENDBRANCH  17  18
ENDBRANCH   1  17
TORSDOF 26
ENDMDL
MODEL 9
REMARK VINA RESULT:    -4.267      1.494      4.700
REMARK INTER + INTRA:         -15.434
REMARK INTER:                  -9.878
REMARK INTRA:                  -5.555
REMARK UNBOUND:                -4.682
REMARK SMILES CCCCCCCCCCCCCCCCCCCCCCCCCCCC(=O)[O-]
REMARK SMILES IDX 15 1 16 2 17 3 18 4 19 5 20 6 21 7 22 8 23 9 24 10 25 11
REMARK SMILES IDX 26 12 27 13 28 14 29 15 30 16 14 17 13 18 12 19 11 20 10 21
REMARK SMILES IDX 9 22 8 23 7 24 6 25 5 26 4 27 3 28 2 29 1 30
REMARK H PARENT
REMARK Flexibility Score: inf
ROOT
ATOM      1  C   UNL     1      14.548   3.761  -1.773  1.00  0.00     0.000 C 
ENDROOT
BRANCH   1   2
ATOM      2  C   UNL     1      13.121   3.404  -2.238  1.00  0.00     0.000 C 
BRANCH   2   3
ATOM      3  C   UNL     1      12.435   2.326  -1.375  1.00  0.00     0.000 C 
BRANCH   3   4
ATOM      4  C   UNL     1      12.015   1.053  -2.131  1.00  0.00     0.000 C 
BRANCH   4   5
ATOM      5  C   UNL     1      12.052  -0.206  -1.245  1.00  0.00     0.000 C 
BRANCH   5   6
ATOM      6  C   UNL     1      12.549   0.090   0.179  1.00  0.00     0.000 C 
BRANCH   6   7
ATOM      7  C   UNL     1      13.843  -0.668   0.525  1.00  0.00     0.000 C 
BRANCH   7   8
ATOM      8  C   UNL     1      13.887  -1.122   1.993  1.00  0.00     0.000 C 
BRANCH   8   9
ATOM      9  C   UNL     1      12.699  -0.589   2.814  1.00  0.00     0.000 C 
BRANCH   9  10
ATOM     10  C   UNL     1      12.837  -0.898   4.315  1.00  0.00     0.000 C 
BRANCH  10  11
ATOM     11  C   UNL     1      12.531   0.323   5.198  1.00  0.00     0.000 C 
BRANCH  11  12
ATOM     12  C   UNL     1      13.573   0.528   6.313  1.00  0.00     0.006 C 
BRANCH  12  13
ATOM     13  C   UNL     1      14.304   1.879   6.260  1.00  0.00     0.053 C 
BRANCH  13  14
ATOM     14  C   UNL     1      15.728   1.731   5.823  1.00  0.00     0.041 C 
ATOM     15  O   UNL     1      16.581   2.605   6.128  1.00  0.00    -0.550 OA
ATOM     16  O   UNL     1      16.108   0.639   5.052  1.00  0.00    -0.550 OA
ENDBRANCH  13  14
ENDBRANCH  12  13
ENDBRANCH  11  12
ENDBRANCH  10  11
ENDBRANCH   9  10
ENDBRANCH   8   9
ENDBRANCH   7   8
ENDBRANCH   6   7
ENDBRANCH   5   6
ENDBRANCH   4   5
ENDBRANCH   3   4
ENDBRANCH   2   3
ENDBRANCH   1   2
BRANCH   1  17
ATOM     17  C   UNL     1      15.462   2.526  -1.694  1.00  0.00     0.000 C 
BRANCH  17  18
ATOM     18  C   UNL     1      15.996   2.265  -0.276  1.00  0.00     0.000 C 
BRANCH  18  19
ATOM     19  C   UNL     1      15.369   3.180   0.798  1.00  0.00     0.000 C 
BRANCH  19  20
ATOM     20  C   UNL     1      14.997   2.410   2.078  1.00  0.00     0.000 C 
BRANCH  20  21
ATOM     21  C   UNL     1      13.800   3.035   2.812  1.00  0.00     0.000 C 
BRANCH  21  22
ATOM     22  C   UNL     1      12.553   3.143   1.921  1.00  0.00    -0.000 C 
BRANCH  22  23
ATOM     23  C   UNL     1      12.179   4.611   1.676  1.00  0.00    -0.000 C 
BRANCH  23  24
ATOM     24  C   UNL     1      10.676   4.840   1.896  1.00  0.00    -0.000 C 
BRANCH  24  25
ATOM     25  C   UNL     1      10.022   5.631   0.751  1.00  0.00    -0.000 C 
BRANCH  25  26
ATOM     26  C   UNL     1       8.631   5.090   0.374  1.00  0.00    -0.000 C 
BRANCH  26  27
ATOM     27  C   UNL     1       8.403   3.652   0.870  1.00  0.00    -0.000 C 
BRANCH  27  28
ATOM     28  C   UNL     1       8.460   2.620  -0.270  1.00  0.00    -0.000 C 
BRANCH  28  29
ATOM     29  C   UNL     1       8.975   1.250   0.201  1.00  0.00    -0.003 C 
ATOM     30  C   UNL     1       9.373   1.241   1.677  1.00  0.00     0.004 C 
ENDBRANCH  28  29
ENDBRANCH  27  28
ENDBRANCH  26  27
ENDBRANCH  25  26
ENDBRANCH  24  25
ENDBRANCH  23  24
ENDBRANCH  22  23
ENDBRANCH  21  22
ENDBRANCH  20  21
ENDBRANCH  19  20
ENDBRANCH  18  19
ENDBRANCH  17  18
ENDBRANCH   1  17
TORSDOF 26
ENDMDL
