MODEL 1
REMARK VINA RESULT:    -3.479      0.000      0.000
REMARK INTER + INTRA:         -13.132
REMARK INTER:                  -9.175
REMARK INTRA:                  -3.958
REMARK UNBOUND:                -3.958
REMARK SMILES CCCCCCCCCCCCCCCCCCCCCCCCCCCCCC(=O)[O-]
REMARK SMILES IDX 16 1 17 2 18 3 19 4 20 5 21 6 22 7 23 8 24 9 25 10 26 11
REMARK SMILES IDX 27 12 28 13 29 14 30 15 31 16 32 17 15 18 14 19 13 20 12 21
REMARK SMILES IDX 11 22 10 23 9 24 8 25 7 26 6 27 5 28 4 29 3 30 2 31 1 32
REMARK H PARENT
REMARK Flexibility Score: inf
ROOT
ATOM      1  C   UNL     1       2.412  43.678   8.766  1.00  0.00     0.000 C 
ENDROOT
BRANCH   1   2
ATOM      2  C   UNL     1       1.062  43.678   8.015  1.00  0.00     0.000 C 
BRANCH   2   3
ATOM      3  C   UNL     1       0.295  45.010   8.088  1.00  0.00     0.000 C 
BRANCH   3   4
ATOM      4  C   UNL     1      -0.509  45.340   6.814  1.00  0.00     0.000 C 
BRANCH   4   5
ATOM      5  C   UNL     1      -1.111  46.754   6.859  1.00  0.00     0.000 C 
BRANCH   5   6
ATOM      6  C   UNL     1      -0.980  47.420   8.239  1.00  0.00     0.000 C 
BRANCH   6   7
ATOM      7  C   UNL     1      -0.127  48.706   8.227  1.00  0.00     0.000 C 
BRANCH   7   8
ATOM      8  C   UNL     1       1.305  48.459   8.726  1.00  0.00     0.000 C 
BRANCH   8   9
ATOM      9  C   UNL     1       2.255  48.169   7.558  1.00  0.00     0.000 C 
BRANCH   9  10
ATOM     10  C   UNL     1       3.639  47.741   8.068  1.00  0.00     0.000 C 
BRANCH  10  11
ATOM     11  C   UNL     1       3.573  47.021   9.424  1.00  0.00     0.000 C 
BRANCH  11  12
ATOM     12  C   UNL     1       4.927  47.011  10.155  1.00  0.00     0.000 C 
BRANCH  12  13
ATOM     13  C   UNL     1       6.129  46.939   9.192  1.00  0.00     0.006 C 
BRANCH  13  14
ATOM     14  C   UNL     1       7.239  47.956   9.507  1.00  0.00     0.053 C 
BRANCH  14  15
ATOM     15  C   UNL     1       6.743  49.370   9.496  1.00  0.00     0.041 C 
ATOM     16  O   UNL     1       6.394  49.910   8.413  1.00  0.00    -0.550 OA
ATOM     17  O   UNL     1       6.684  50.098  10.678  1.00  0.00    -0.550 OA
ENDBRANCH  14  15
ENDBRANCH  13  14
ENDBRANCH  12  13
ENDBRANCH  11  12
ENDBRANCH  10  11
ENDBRANCH   9  10
ENDBRANCH   8   9
ENDBRANCH   7   8
ENDBRANCH   6   7
ENDBRANCH   5   6
ENDBRANCH   4   5
ENDBRANCH   3   4
ENDBRANCH   2   3
ENDBRANCH   1   2
BRANCH   1  18
ATOM     18  C   UNL     1       2.708  42.406   9.590  1.00  0.00     0.000 C 
BRANCH  18  19
ATOM     19  C   UNL     1       3.835  42.532  10.636  1.00  0.00     0.000 C 
BRANCH  19  20
ATOM     20  C   UNL     1       3.824  43.824  11.476  1.00  0.00     0.000 C 
BRANCH  20  21
ATOM     21  C   UNL     1       2.568  43.994  12.357  1.00  0.00     0.000 C 
BRANCH  21  22
ATOM     22  C   UNL     1       1.484  44.860  11.692  1.00  0.00     0.000 C 
BRANCH  22  23
ATOM     23  C   UNL     1       0.141  44.120  11.562  1.00  0.00     0.000 C 
BRANCH  23  24
ATOM     24  C   UNL     1      -0.468  43.770  12.929  1.00  0.00    -0.000 C 
BRANCH  24  25
ATOM     25  C   UNL     1      -0.934  42.307  12.966  1.00  0.00    -0.000 C 
BRANCH  25  26
ATOM     26  C   UNL     1      -1.054  41.764  14.399  1.00  0.00    -0.000 C 
BRANCH  26  27
ATOM     27  C   UNL     1       0.171  40.932  14.824  1.00  0.00    -0.000 C 
BRANCH  27  28
ATOM     28  C   UNL     1       0.589  39.907  13.758  1.00  0.00    -0.000 C 
BRANCH  28  29
ATOM     29  C   UNL     1       1.889  40.304  13.035  1.00  0.00    -0.000 C 
BRANCH  29  30
ATOM     30  C   UNL     1       2.740  39.090  12.622  1.00  0.00    -0.000 C 
BRANCH  30  31
ATOM     31  C   UNL     1       4.181  39.091  13.161  1.00  0.00    -0.003 C 
ATOM     32  C   UNL     1       4.864  40.454  13.039  1.00  0.00     0.004 C 
ENDBRANCH  30  31
ENDBRANCH  29  30
ENDBRANCH  28  29
ENDBRANCH  27  28
ENDBRANCH  26  27
ENDBRANCH  25  26
ENDBRANCH  24  25
ENDBRANCH  23  24
ENDBRANCH  22  23
ENDBRANCH  21  22
ENDBRANCH  20  21
ENDBRANCH  19  20
ENDBRANCH  18  19
ENDBRANCH   1  18
TORSDOF 28
ENDMDL
MODEL 2
REMARK VINA RESULT:    -3.438      1.204      2.513
REMARK INTER + INTRA:         -13.023
REMARK INTER:                  -9.832
REMARK INTRA:                  -3.191
REMARK UNBOUND:                -3.958
REMARK SMILES CCCCCCCCCCCCCCCCCCCCCCCCCCCCCC(=O)[O-]
REMARK SMILES IDX 16 1 17 2 18 3 19 4 20 5 21 6 22 7 23 8 24 9 25 10 26 11
REMARK SMILES IDX 27 12 28 13 29 14 30 15 31 16 32 17 15 18 14 19 13 20 12 21
REMARK SMILES IDX 11 22 10 23 9 24 8 25 7 26 6 27 5 28 4 29 3 30 2 31 1 32
REMARK H PARENT
REMARK Flexibility Score: inf
ROOT
ATOM      1  C   UNL     1       3.939  42.759  10.528  1.00  0.00     0.000 C 
ENDROOT
BRANCH   1   2
ATOM      2  C   UNL     1       3.592  43.217   9.094  1.00  0.00     0.000 C 
BRANCH   2   3
ATOM      3  C   UNL     1       2.137  42.941   8.675  1.00  0.00     0.000 C 
BRANCH   3   4
ATOM      4  C   UNL     1       1.257  44.205   8.603  1.00  0.00     0.000 C 
BRANCH   4   5
ATOM      5  C   UNL     1       0.412  44.250   7.318  1.00  0.00     0.000 C 
BRANCH   5   6
ATOM      6  C   UNL     1      -0.506  45.482   7.245  1.00  0.00     0.000 C 
BRANCH   6   7
ATOM      7  C   UNL     1      -0.330  46.455   8.430  1.00  0.00     0.000 C 
BRANCH   7   8
ATOM      8  C   UNL     1      -0.477  47.924   8.003  1.00  0.00     0.000 C 
BRANCH   8   9
ATOM      9  C   UNL     1       0.840  48.688   8.191  1.00  0.00     0.000 C 
BRANCH   9  10
ATOM     10  C   UNL     1       2.045  47.789   7.873  1.00  0.00     0.000 C 
BRANCH  10  11
ATOM     11  C   UNL     1       2.895  47.477   9.115  1.00  0.00     0.000 C 
BRANCH  11  12
ATOM     12  C   UNL     1       4.220  46.780   8.766  1.00  0.00     0.000 C 
BRANCH  12  13
ATOM     13  C   UNL     1       5.297  46.956   9.855  1.00  0.00     0.006 C 
BRANCH  13  14
ATOM     14  C   UNL     1       6.592  47.613   9.348  1.00  0.00     0.053 C 
BRANCH  14  15
ATOM     15  C   UNL     1       6.519  49.109   9.355  1.00  0.00     0.041 C 
ATOM     16  O   UNL     1       6.189  49.731   8.311  1.00  0.00    -0.550 OA
ATOM     17  O   UNL     1       6.832  49.817  10.509  1.00  0.00    -0.550 OA
ENDBRANCH  14  15
ENDBRANCH  13  14
ENDBRANCH  12  13
ENDBRANCH  11  12
ENDBRANCH  10  11
ENDBRANCH   9  10
ENDBRANCH   8   9
ENDBRANCH   7   8
ENDBRANCH   6   7
ENDBRANCH   5   6
ENDBRANCH   4   5
ENDBRANCH   3   4
ENDBRANCH   2   3
ENDBRANCH   1   2
BRANCH   1  18
ATOM     18  C   UNL     1       4.146  43.898  11.552  1.00  0.00     0.000 C 
BRANCH  18  19
ATOM     19  C   UNL     1       2.893  44.323  12.344  1.00  0.00     0.000 C 
BRANCH  19  20
ATOM     20  C   UNL     1       1.775  44.988  11.517  1.00  0.00     0.000 C 
BRANCH  20  21
ATOM     21  C   UNL     1       0.380  44.360  11.721  1.00  0.00     0.000 C 
BRANCH  21  22
ATOM     22  C   UNL     1       0.388  43.200  12.731  1.00  0.00     0.000 C 
BRANCH  22  23
ATOM     23  C   UNL     1      -1.020  42.635  12.987  1.00  0.00     0.000 C 
BRANCH  23  24
ATOM     24  C   UNL     1      -1.034  41.586  14.110  1.00  0.00    -0.000 C 
BRANCH  24  25
ATOM     25  C   UNL     1      -0.610  40.208  13.581  1.00  0.00    -0.000 C 
BRANCH  25  26
ATOM     26  C   UNL     1       0.828  39.840  13.981  1.00  0.00    -0.000 C 
BRANCH  26  27
ATOM     27  C   UNL     1       1.884  40.514  13.085  1.00  0.00    -0.000 C 
BRANCH  27  28
ATOM     28  C   UNL     1       2.892  39.512  12.501  1.00  0.00    -0.000 C 
BRANCH  28  29
ATOM     29  C   UNL     1       2.547  38.054  12.854  1.00  0.00    -0.000 C 
BRANCH  29  30
ATOM     30  C   UNL     1       2.351  37.167  11.611  1.00  0.00    -0.000 C 
BRANCH  30  31
ATOM     31  C   UNL     1       1.320  36.037  11.775  1.00  0.00    -0.003 C 
ATOM     32  C   UNL     1      -0.079  36.549  12.117  1.00  0.00     0.004 C 
ENDBRANCH  30  31
ENDBRANCH  29  30
ENDBRANCH  28  29
ENDBRANCH  27  28
ENDBRANCH  26  27
ENDBRANCH  25  26
ENDBRANCH  24  25
ENDBRANCH  23  24
ENDBRANCH  22  23
ENDBRANCH  21  22
ENDBRANCH  20  21
ENDBRANCH  19  20
ENDBRANCH  18  19
ENDBRANCH   1  18
TORSDOF 28
ENDMDL
MODEL 3
REMARK VINA RESULT:    -3.155      3.868      8.620
REMARK INTER + INTRA:         -12.276
REMARK INTER:                  -8.653
REMARK INTRA:                  -3.623
REMARK UNBOUND:                -3.958
REMARK SMILES CCCCCCCCCCCCCCCCCCCCCCCCCCCCCC(=O)[O-]
REMARK SMILES IDX 16 1 17 2 18 3 19 4 20 5 21 6 22 7 23 8 24 9 25 10 26 11
REMARK SMILES IDX 27 12 28 13 29 14 30 15 31 16 32 17 15 18 14 19 13 20 12 21
REMARK SMILES IDX 11 22 10 23 9 24 8 25 7 26 6 27 5 28 4 29 3 30 2 31 1 32
REMARK H PARENT
REMARK Flexibility Score: inf
ROOT
ATOM      1  C   UNL     1       3.717  43.151   9.087  1.00  0.00     0.000 C 
ENDROOT
BRANCH   1   2
ATOM      2  C   UNL     1       4.080  42.782  10.543  1.00  0.00     0.000 C 
BRANCH   2   3
ATOM      3  C   UNL     1       4.453  43.985  11.428  1.00  0.00     0.000 C 
BRANCH   3   4
ATOM      4  C   UNL     1       3.450  44.260  12.566  1.00  0.00     0.000 C 
BRANCH   4   5
ATOM      5  C   UNL     1       2.000  44.323  12.058  1.00  0.00     0.000 C 
BRANCH   5   6
ATOM      6  C   UNL     1       1.188  43.062  12.399  1.00  0.00     0.000 C 
BRANCH   6   7
ATOM      7  C   UNL     1      -0.318  43.332  12.603  1.00  0.00     0.000 C 
BRANCH   7   8
ATOM      8  C   UNL     1      -1.052  42.120  13.197  1.00  0.00     0.000 C 
BRANCH   8   9
ATOM      9  C   UNL     1      -0.825  42.026  14.711  1.00  0.00     0.000 C 
BRANCH   9  10
ATOM     10  C   UNL     1       0.188  40.919  15.046  1.00  0.00     0.000 C 
BRANCH  10  11
ATOM     11  C   UNL     1       0.414  39.949  13.875  1.00  0.00     0.000 C 
BRANCH  11  12
ATOM     12  C   UNL     1       1.856  39.992  13.342  1.00  0.00     0.000 C 
BRANCH  12  13
ATOM     13  C   UNL     1       2.340  38.628  12.810  1.00  0.00     0.006 C 
BRANCH  13  14
ATOM     14  C   UNL     1       1.206  37.617  12.570  1.00  0.00     0.053 C 
BRANCH  14  15
ATOM     15  C   UNL     1       1.652  36.433  11.768  1.00  0.00     0.041 C 
ATOM     16  O   UNL     1       0.818  35.561  11.408  1.00  0.00    -0.550 OA
ATOM     17  O   UNL     1       2.993  36.283  11.432  1.00  0.00    -0.550 OA
ENDBRANCH  14  15
ENDBRANCH  13  14
ENDBRANCH  12  13
ENDBRANCH  11  12
ENDBRANCH  10  11
ENDBRANCH   9  10
ENDBRANCH   8   9
ENDBRANCH   7   8
ENDBRANCH   6   7
ENDBRANCH   5   6
ENDBRANCH   4   5
ENDBRANCH   3   4
ENDBRANCH   2   3
ENDBRANCH   1   2
BRANCH   1  18
ATOM     18  C   UNL     1       2.239  42.924   8.699  1.00  0.00     0.000 C 
BRANCH  18  19
ATOM     19  C   UNL     1       1.351  44.185   8.675  1.00  0.00     0.000 C 
BRANCH  19  20
ATOM     20  C   UNL     1       0.597  44.445   7.356  1.00  0.00     0.000 C 
BRANCH  20  21
ATOM     21  C   UNL     1      -0.807  45.058   7.542  1.00  0.00     0.000 C 
BRANCH  21  22
ATOM     22  C   UNL     1      -0.797  46.318   8.425  1.00  0.00     0.000 C 
BRANCH  22  23
ATOM     23  C   UNL     1      -1.031  47.604   7.614  1.00  0.00     0.000 C 
BRANCH  23  24
ATOM     24  C   UNL     1      -0.021  48.708   7.966  1.00  0.00    -0.000 C 
BRANCH  24  25
ATOM     25  C   UNL     1       1.179  48.133   8.732  1.00  0.00    -0.000 C 
BRANCH  25  26
ATOM     26  C   UNL     1       2.467  48.128   7.893  1.00  0.00    -0.000 C 
BRANCH  26  27
ATOM     27  C   UNL     1       3.477  47.063   8.361  1.00  0.00    -0.000 C 
BRANCH  27  28
ATOM     28  C   UNL     1       3.544  46.943   9.892  1.00  0.00    -0.000 C 
BRANCH  28  29
ATOM     29  C   UNL     1       4.972  47.129  10.436  1.00  0.00    -0.000 C 
BRANCH  29  30
ATOM     30  C   UNL     1       6.057  46.776   9.402  1.00  0.00    -0.000 C 
BRANCH  30  31
ATOM     31  C   UNL     1       7.050  47.909   9.089  1.00  0.00    -0.003 C 
ATOM     32  C   UNL     1       6.453  49.302   9.292  1.00  0.00     0.004 C 
ENDBRANCH  30  31
ENDBRANCH  29  30
ENDBRANCH  28  29
ENDBRANCH  27  28
ENDBRANCH  26  27
ENDBRANCH  25  26
ENDBRANCH  24  25
ENDBRANCH  23  24
ENDBRANCH  22  23
ENDBRANCH  21  22
ENDBRANCH  20  21
ENDBRANCH  19  20
ENDBRANCH  18  19
ENDBRANCH   1  18
TORSDOF 28
ENDMDL
MODEL 4
REMARK VINA RESULT:    -2.804      0.905      2.195
REMARK INTER + INTRA:         -11.352
REMARK INTER:                  -8.557
REMARK INTRA:                  -2.796
REMARK UNBOUND:                -3.958
REMARK SMILES CCCCCCCCCCCCCCCCCCCCCCCCCCCCCC(=O)[O-]
REMARK SMILES IDX 16 1 17 2 18 3 19 4 20 5 21 6 22 7 23 8 24 9 25 10 26 11
REMARK SMILES IDX 27 12 28 13 29 14 30 15 31 16 32 17 15 18 14 19 13 20 12 21
REMARK SMILES IDX 11 22 10 23 9 24 8 25 7 26 6 27 5 28 4 29 3 30 2 31 1 32
REMARK H PARENT
REMARK Flexibility Score: inf
ROOT
ATOM      1  C   UNL     1       4.475  43.098  10.539  1.00  0.00     0.000 C 
ENDROOT
BRANCH   1   2
ATOM      2  C   UNL     1       3.115  42.717   9.915  1.00  0.00     0.000 C 
BRANCH   2   3
ATOM      3  C   UNL     1       2.706  43.579   8.708  1.00  0.00     0.000 C 
BRANCH   3   4
ATOM      4  C   UNL     1       1.202  43.518   8.375  1.00  0.00     0.000 C 
BRANCH   4   5
ATOM      5  C   UNL     1       0.631  44.900   8.014  1.00  0.00     0.000 C 
BRANCH   5   6
ATOM      6  C   UNL     1      -0.003  45.621   9.216  1.00  0.00     0.000 C 
BRANCH   6   7
ATOM      7  C   UNL     1      -0.600  46.999   8.866  1.00  0.00     0.000 C 
BRANCH   7   8
ATOM      8  C   UNL     1       0.098  47.647   7.659  1.00  0.00     0.000 C 
BRANCH   8   9
ATOM      9  C   UNL     1       1.171  48.644   8.113  1.00  0.00     0.000 C 
BRANCH   9  10
ATOM     10  C   UNL     1       2.580  48.075   7.882  1.00  0.00     0.000 C 
BRANCH  10  11
ATOM     11  C   UNL     1       3.141  47.363   9.123  1.00  0.00     0.000 C 
BRANCH  11  12
ATOM     12  C   UNL     1       4.433  46.583   8.824  1.00  0.00     0.000 C 
BRANCH  12  13
ATOM     13  C   UNL     1       5.539  46.831   9.868  1.00  0.00     0.006 C 
BRANCH  13  14
ATOM     14  C   UNL     1       6.737  47.629   9.326  1.00  0.00     0.053 C 
BRANCH  14  15
ATOM     15  C   UNL     1       6.495  49.107   9.336  1.00  0.00     0.041 C 
ATOM     16  O   UNL     1       6.807  49.794  10.344  1.00  0.00    -0.550 OA
ATOM     17  O   UNL     1       5.905  49.725   8.239  1.00  0.00    -0.550 OA
ENDBRANCH  14  15
ENDBRANCH  13  14
ENDBRANCH  12  13
ENDBRANCH  11  12
ENDBRANCH  10  11
ENDBRANCH   9  10
ENDBRANCH   8   9
ENDBRANCH   7   8
ENDBRANCH   6   7
ENDBRANCH   5   6
ENDBRANCH   4   5
ENDBRANCH   3   4
ENDBRANCH   2   3
ENDBRANCH   1   2
BRANCH   1  18
ATOM     18  C   UNL     1       4.408  44.127  11.689  1.00  0.00     0.000 C 
BRANCH  18  19
ATOM     19  C   UNL     1       3.177  44.021  12.612  1.00  0.00     0.000 C 
BRANCH  19  20
ATOM     20  C   UNL     1       1.886  44.674  12.080  1.00  0.00     0.000 C 
BRANCH  20  21
ATOM     21  C   UNL     1       0.735  43.679  11.822  1.00  0.00     0.000 C 
BRANCH  21  22
ATOM     22  C   UNL     1       0.638  42.584  12.900  1.00  0.00     0.000 C 
BRANCH  22  23
ATOM     23  C   UNL     1      -0.816  42.277  13.295  1.00  0.00     0.000 C 
BRANCH  23  24
ATOM     24  C   UNL     1      -0.958  41.938  14.787  1.00  0.00    -0.000 C 
BRANCH  24  25
ATOM     25  C   UNL     1      -0.342  40.567  15.101  1.00  0.00    -0.000 C 
BRANCH  25  26
ATOM     26  C   UNL     1      -0.330  39.633  13.881  1.00  0.00    -0.000 C 
BRANCH  26  27
ATOM     27  C   UNL     1       1.084  39.134  13.529  1.00  0.00    -0.000 C 
BRANCH  27  28
ATOM     28  C   UNL     1       1.066  37.870  12.655  1.00  0.00    -0.000 C 
BRANCH  28  29
ATOM     29  C   UNL     1       2.448  37.546  12.058  1.00  0.00    -0.000 C 
BRANCH  29  30
ATOM     30  C   UNL     1       3.585  38.355  12.707  1.00  0.00    -0.000 C 
BRANCH  30  31
ATOM     31  C   UNL     1       3.705  39.811  12.224  1.00  0.00    -0.003 C 
ATOM     32  C   UNL     1       4.738  40.619  13.011  1.00  0.00     0.004 C 
ENDBRANCH  30  31
ENDBRANCH  29  30
ENDBRANCH  28  29
ENDBRANCH  27  28
ENDBRANCH  26  27
ENDBRANCH  25  26
ENDBRANCH  24  25
ENDBRANCH  23  24
ENDBRANCH  22  23
ENDBRANCH  21  22
ENDBRANCH  20  21
ENDBRANCH  19  20
ENDBRANCH  18  19
ENDBRANCH   1  18
TORSDOF 28
ENDMDL
MODEL 5
REMARK VINA RESULT:    -2.715      4.040      7.358
REMARK INTER + INTRA:         -11.117
REMARK INTER:                  -8.223
REMARK INTRA:                  -2.894
REMARK UNBOUND:                -3.958
REMARK SMILES CCCCCCCCCCCCCCCCCCCCCCCCCCCCCC(=O)[O-]
REMARK SMILES IDX 16 1 17 2 18 3 19 4 20 5 21 6 22 7 23 8 24 9 25 10 26 11
REMARK SMILES IDX 27 12 28 13 29 14 30 15 31 16 32 17 15 18 14 19 13 20 12 21
REMARK SMILES IDX 11 22 10 23 9 24 8 25 7 26 6 27 5 28 4 29 3 30 2 31 1 32
REMARK H PARENT
REMARK Flexibility Score: inf
ROOT
ATOM      1  C   UNL     1      -0.121  48.342   7.987  1.00  0.00     0.000 C 
ENDROOT
BRANCH   1   2
ATOM      2  C   UNL     1      -0.611  47.080   7.244  1.00  0.00     0.000 C 
BRANCH   2   3
ATOM      3  C   UNL     1      -0.658  45.810   8.113  1.00  0.00     0.000 C 
BRANCH   3   4
ATOM      4  C   UNL     1       0.426  44.771   7.762  1.00  0.00     0.000 C 
BRANCH   4   5
ATOM      5  C   UNL     1       1.342  44.463   8.958  1.00  0.00     0.000 C 
BRANCH   5   6
ATOM      6  C   UNL     1       1.839  43.006   8.975  1.00  0.00     0.000 C 
BRANCH   6   7
ATOM      7  C   UNL     1       3.343  42.862   8.662  1.00  0.00     0.000 C 
BRANCH   7   8
ATOM      8  C   UNL     1       4.188  42.692   9.934  1.00  0.00     0.000 C 
BRANCH   8   9
ATOM      9  C   UNL     1       3.589  41.622  10.855  1.00  0.00     0.000 C 
BRANCH   9  10
ATOM     10  C   UNL     1       4.481  41.397  12.087  1.00  0.00     0.000 C 
BRANCH  10  11
ATOM     11  C   UNL     1       4.129  40.107  12.844  1.00  0.00     0.000 C 
BRANCH  11  12
ATOM     12  C   UNL     1       2.763  39.533  12.430  1.00  0.00     0.000 C 
BRANCH  12  13
ATOM     13  C   UNL     1       2.548  38.086  12.916  1.00  0.00     0.006 C 
BRANCH  13  14
ATOM     14  C   UNL     1       2.349  37.071  11.778  1.00  0.00     0.053 C 
BRANCH  14  15
ATOM     15  C   UNL     1       1.000  36.420  11.819  1.00  0.00     0.041 C 
ATOM     16  O   UNL     1       0.777  35.382  11.140  1.00  0.00    -0.550 OA
ATOM     17  O   UNL     1      -0.017  36.969  12.591  1.00  0.00    -0.550 OA
ENDBRANCH  14  15
ENDBRANCH  13  14
ENDBRANCH  12  13
ENDBRANCH  11  12
ENDBRANCH  10  11
ENDBRANCH   9  10
ENDBRANCH   8   9
ENDBRANCH   7   8
ENDBRANCH   6   7
ENDBRANCH   5   6
ENDBRANCH   4   5
ENDBRANCH   3   4
ENDBRANCH   2   3
ENDBRANCH   1   2
BRANCH   1  18
ATOM     18  C   UNL     1       1.246  48.202   8.693  1.00  0.00     0.000 C 
BRANCH  18  19
ATOM     19  C   UNL     1       2.486  48.306   7.781  1.00  0.00     0.000 C 
BRANCH  19  20
ATOM     20  C   UNL     1       3.624  47.313   8.087  1.00  0.00     0.000 C 
BRANCH  20  21
ATOM     21  C   UNL     1       4.866  47.957   8.739  1.00  0.00     0.000 C 
BRANCH  21  22
ATOM     22  C   UNL     1       5.320  47.224  10.014  1.00  0.00     0.000 C 
BRANCH  22  23
ATOM     23  C   UNL     1       4.587  45.886  10.212  1.00  0.00     0.000 C 
BRANCH  23  24
ATOM     24  C   UNL     1       3.350  46.025  11.114  1.00  0.00    -0.000 C 
BRANCH  24  25
ATOM     25  C   UNL     1       3.225  44.826  12.066  1.00  0.00    -0.000 C 
BRANCH  25  26
ATOM     26  C   UNL     1       1.762  44.440  12.337  1.00  0.00    -0.000 C 
BRANCH  26  27
ATOM     27  C   UNL     1       1.615  42.995  12.849  1.00  0.00    -0.000 C 
BRANCH  27  28
ATOM     28  C   UNL     1       0.150  42.532  12.903  1.00  0.00    -0.000 C 
BRANCH  28  29
ATOM     29  C   UNL     1       0.010  41.070  13.364  1.00  0.00    -0.000 C 
BRANCH  29  30
ATOM     30  C   UNL     1      -0.081  40.931  14.895  1.00  0.00    -0.000 C 
BRANCH  30  31
ATOM     31  C   UNL     1      -1.038  41.920  15.582  1.00  0.00    -0.003 C 
ATOM     32  C   UNL     1      -0.917  41.910  17.106  1.00  0.00     0.004 C 
ENDBRANCH  30  31
ENDBRANCH  29  30
ENDBRANCH  28  29
ENDBRANCH  27  28
ENDBRANCH  26  27
ENDBRANCH  25  26
ENDBRANCH  24  25
ENDBRANCH  23  24
ENDBRANCH  22  23
ENDBRANCH  21  22
ENDBRANCH  20  21
ENDBRANCH  19  20
ENDBRANCH  18  19
ENDBRANCH   1  18
TORSDOF 28
ENDMDL
MODEL 6
REMARK VINA RESULT:    -2.583      2.189      8.057
REMARK INTER + INTRA:         -10.769
REMARK INTER:                  -7.769
REMARK INTRA:                  -3.000
REMARK UNBOUND:                -3.958
REMARK SMILES CCCCCCCCCCCCCCCCCCCCCCCCCCCCCC(=O)[O-]
REMARK SMILES IDX 16 1 17 2 18 3 19 4 20 5 21 6 22 7 23 8 24 9 25 10 26 11
REMARK SMILES IDX 27 12 28 13 29 14 30 15 31 16 32 17 15 18 14 19 13 20 12 21
REMARK SMILES IDX 11 22 10 23 9 24 8 25 7 26 6 27 5 28 4 29 3 30 2 31 1 32
REMARK H PARENT
REMARK Flexibility Score: inf
ROOT
ATOM      1  C   UNL     1       1.129  44.761  11.700  1.00  0.00     0.000 C 
ENDROOT
BRANCH   1   2
ATOM      2  C   UNL     1      -0.077  43.865  12.060  1.00  0.00     0.000 C 
BRANCH   2   3
ATOM      3  C   UNL     1       0.294  42.567  12.799  1.00  0.00     0.000 C 
BRANCH   3   4
ATOM      4  C   UNL     1      -0.871  41.944  13.593  1.00  0.00     0.000 C 
BRANCH   4   5
ATOM      5  C   UNL     1      -0.454  40.653  14.319  1.00  0.00     0.000 C 
BRANCH   5   6
ATOM      6  C   UNL     1       0.834  40.033  13.748  1.00  0.00     0.000 C 
BRANCH   6   7
ATOM      7  C   UNL     1       0.608  38.678  13.045  1.00  0.00     0.000 C 
BRANCH   7   8
ATOM      8  C   UNL     1       1.918  37.897  12.853  1.00  0.00     0.000 C 
BRANCH   8   9
ATOM      9  C   UNL     1       2.965  38.747  12.124  1.00  0.00     0.000 C 
BRANCH   9  10
ATOM     10  C   UNL     1       4.116  39.130  13.069  1.00  0.00     0.000 C 
BRANCH  10  11
ATOM     11  C   UNL     1       4.571  40.586  12.887  1.00  0.00     0.000 C 
BRANCH  11  12
ATOM     12  C   UNL     1       3.796  41.313  11.774  1.00  0.00     0.000 C 
BRANCH  12  13
ATOM     13  C   UNL     1       3.894  42.848  11.879  1.00  0.00     0.006 C 
BRANCH  13  14
ATOM     14  C   UNL     1       4.328  43.534  10.572  1.00  0.00     0.053 C 
BRANCH  14  15
ATOM     15  C   UNL     1       3.604  42.998   9.375  1.00  0.00     0.041 C 
ATOM     16  O   UNL     1       4.205  42.872   8.275  1.00  0.00    -0.550 OA
ATOM     17  O   UNL     1       2.260  42.655   9.467  1.00  0.00    -0.550 OA
ENDBRANCH  14  15
ENDBRANCH  13  14
ENDBRANCH  12  13
ENDBRANCH  11  12
ENDBRANCH  10  11
ENDBRANCH   9  10
ENDBRANCH   8   9
ENDBRANCH   7   8
ENDBRANCH   6   7
ENDBRANCH   5   6
ENDBRANCH   4   5
ENDBRANCH   3   4
ENDBRANCH   2   3
ENDBRANCH   1   2
BRANCH   1  18
ATOM     18  C   UNL     1       1.006  45.526  10.364  1.00  0.00     0.000 C 
BRANCH  18  19
ATOM     19  C   UNL     1      -0.402  45.555   9.734  1.00  0.00     0.000 C 
BRANCH  19  20
ATOM     20  C   UNL     1      -0.443  45.622   8.195  1.00  0.00     0.000 C 
BRANCH  20  21
ATOM     21  C   UNL     1      -0.819  47.009   7.633  1.00  0.00     0.000 C 
BRANCH  21  22
ATOM     22  C   UNL     1      -0.620  48.143   8.655  1.00  0.00     0.000 C 
BRANCH  22  23
ATOM     23  C   UNL     1       0.825  48.669   8.672  1.00  0.00     0.000 C 
BRANCH  23  24
ATOM     24  C   UNL     1       1.619  48.237   7.430  1.00  0.00    -0.000 C 
BRANCH  24  25
ATOM     25  C   UNL     1       3.129  48.246   7.711  1.00  0.00    -0.000 C 
BRANCH  25  26
ATOM     26  C   UNL     1       3.606  46.962   8.409  1.00  0.00    -0.000 C 
BRANCH  26  27
ATOM     27  C   UNL     1       3.883  47.171   9.910  1.00  0.00    -0.000 C 
BRANCH  27  28
ATOM     28  C   UNL     1       5.310  46.767  10.311  1.00  0.00    -0.000 C 
BRANCH  28  29
ATOM     29  C   UNL     1       6.344  47.091   9.217  1.00  0.00    -0.000 C 
BRANCH  29  30
ATOM     30  C   UNL     1       7.265  48.266   9.593  1.00  0.00    -0.000 C 
BRANCH  30  31
ATOM     31  C   UNL     1       6.664  49.663   9.361  1.00  0.00    -0.003 C 
ATOM     32  C   UNL     1       6.959  50.638  10.502  1.00  0.00     0.004 C 
ENDBRANCH  30  31
ENDBRANCH  29  30
ENDBRANCH  28  29
ENDBRANCH  27  28
ENDBRANCH  26  27
ENDBRANCH  25  26
ENDBRANCH  24  25
ENDBRANCH  23  24
ENDBRANCH  22  23
ENDBRANCH  21  22
ENDBRANCH  20  21
ENDBRANCH  19  20
ENDBRANCH  18  19
ENDBRANCH   1  18
TORSDOF 28
ENDMDL
MODEL 7
REMARK VINA RESULT:    -2.546      3.297      8.430
REMARK INTER + INTRA:         -10.671
REMARK INTER:                  -7.110
REMARK INTRA:                  -3.561
REMARK UNBOUND:                -3.958
REMARK SMILES CCCCCCCCCCCCCCCCCCCCCCCCCCCCCC(=O)[O-]
REMARK SMILES IDX 16 1 17 2 18 3 19 4 20 5 21 6 22 7 23 8 24 9 25 10 26 11
REMARK SMILES IDX 27 12 28 13 29 14 30 15 31 16 32 17 15 18 14 19 13 20 12 21
REMARK SMILES IDX 11 22 10 23 9 24 8 25 7 26 6 27 5 28 4 29 3 30 2 31 1 32
REMARK H PARENT
REMARK Flexibility Score: inf
ROOT
ATOM      1  C   UNL     1       2.828  42.109  10.557  1.00  0.00     0.000 C 
ENDROOT
BRANCH   1   2
ATOM      2  C   UNL     1       2.914  42.825   9.192  1.00  0.00     0.000 C 
BRANCH   2   3
ATOM      3  C   UNL     1       1.575  43.392   8.687  1.00  0.00     0.000 C 
BRANCH   3   4
ATOM      4  C   UNL     1       1.352  44.877   9.037  1.00  0.00     0.000 C 
BRANCH   4   5
ATOM      5  C   UNL     1      -0.117  45.300   8.865  1.00  0.00     0.000 C 
BRANCH   5   6
ATOM      6  C   UNL     1      -0.782  45.714  10.188  1.00  0.00     0.000 C 
BRANCH   6   7
ATOM      7  C   UNL     1      -0.073  45.154  11.439  1.00  0.00     0.000 C 
BRANCH   7   8
ATOM      8  C   UNL     1      -0.948  44.148  12.203  1.00  0.00     0.000 C 
BRANCH   8   9
ATOM      9  C   UNL     1      -0.093  43.047  12.843  1.00  0.00     0.000 C 
BRANCH   9  10
ATOM     10  C   UNL     1      -0.979  41.948  13.450  1.00  0.00     0.000 C 
BRANCH  10  11
ATOM     11  C   UNL     1      -0.612  41.632  14.909  1.00  0.00     0.000 C 
BRANCH  11  12
ATOM     12  C   UNL     1       0.647  40.756  15.025  1.00  0.00     0.000 C 
BRANCH  12  13
ATOM     13  C   UNL     1       0.794  39.757  13.861  1.00  0.00     0.006 C 
BRANCH  13  14
ATOM     14  C   UNL     1       2.000  40.038  12.949  1.00  0.00     0.053 C 
BRANCH  14  15
ATOM     15  C   UNL     1       2.921  38.861  12.835  1.00  0.00     0.041 C 
ATOM     16  O   UNL     1       4.115  38.952  13.225  1.00  0.00    -0.550 OA
ATOM     17  O   UNL     1       2.466  37.670  12.282  1.00  0.00    -0.550 OA
ENDBRANCH  14  15
ENDBRANCH  13  14
ENDBRANCH  12  13
ENDBRANCH  11  12
ENDBRANCH  10  11
ENDBRANCH   9  10
ENDBRANCH   8   9
ENDBRANCH   7   8
ENDBRANCH   6   7
ENDBRANCH   5   6
ENDBRANCH   4   5
ENDBRANCH   3   4
ENDBRANCH   2   3
ENDBRANCH   1   2
BRANCH   1  18
ATOM     18  C   UNL     1       3.795  42.637  11.641  1.00  0.00     0.000 C 
BRANCH  18  19
ATOM     19  C   UNL     1       3.491  44.050  12.179  1.00  0.00     0.000 C 
BRANCH  19  20
ATOM     20  C   UNL     1       4.436  45.166  11.693  1.00  0.00     0.000 C 
BRANCH  20  21
ATOM     21  C   UNL     1       3.762  46.211  10.779  1.00  0.00     0.000 C 
BRANCH  21  22
ATOM     22  C   UNL     1       4.692  46.715   9.660  1.00  0.00     0.000 C 
BRANCH  22  23
ATOM     23  C   UNL     1       6.176  46.451   9.968  1.00  0.00     0.000 C 
BRANCH  23  24
ATOM     24  C   UNL     1       7.095  47.539   9.391  1.00  0.00    -0.000 C 
BRANCH  24  25
ATOM     25  C   UNL     1       6.593  48.941   9.768  1.00  0.00    -0.000 C 
BRANCH  25  26
ATOM     26  C   UNL     1       6.513  49.883   8.556  1.00  0.00    -0.000 C 
BRANCH  26  27
ATOM     27  C   UNL     1       5.066  50.134   8.093  1.00  0.00    -0.000 C 
BRANCH  27  28
ATOM     28  C   UNL     1       4.436  48.903   7.423  1.00  0.00    -0.000 C 
BRANCH  28  29
ATOM     29  C   UNL     1       2.944  49.104   7.104  1.00  0.00    -0.000 C 
BRANCH  29  30
ATOM     30  C   UNL     1       2.028  48.158   7.901  1.00  0.00    -0.000 C 
BRANCH  30  31
ATOM     31  C   UNL     1       0.798  48.827   8.538  1.00  0.00    -0.003 C 
ATOM     32  C   UNL     1       0.295  50.033   7.744  1.00  0.00     0.004 C 
ENDBRANCH  30  31
ENDBRANCH  29  30
ENDBRANCH  28  29
ENDBRANCH  27  28
ENDBRANCH  26  27
ENDBRANCH  25  26
ENDBRANCH  24  25
ENDBRANCH  23  24
ENDBRANCH  22  23
ENDBRANCH  21  22
ENDBRANCH  20  21
ENDBRANCH  19  20
ENDBRANCH  18  19
ENDBRANCH   1  18
TORSDOF 28
ENDMDL
MODEL 8
REMARK VINA RESULT:    -2.428      1.657      7.591
REMARK INTER + INTRA:         -10.361
REMARK INTER:                  -7.186
REMARK INTRA:                  -3.175
REMARK UNBOUND:                -3.958
REMARK SMILES CCCCCCCCCCCCCCCCCCCCCCCCCCCCCC(=O)[O-]
REMARK SMILES IDX 16 1 17 2 18 3 19 4 20 5 21 6 22 7 23 8 24 9 25 10 26 11
REMARK SMILES IDX 27 12 28 13 29 14 30 15 31 16 32 17 15 18 14 19 13 20 12 21
REMARK SMILES IDX 11 22 10 23 9 24 8 25 7 26 6 27 5 28 4 29 3 30 2 31 1 32
REMARK H PARENT
REMARK Flexibility Score: inf
ROOT
ATOM      1  C   UNL     1       2.950  41.669  10.752  1.00  0.00     0.000 C 
ENDROOT
BRANCH   1   2
ATOM      2  C   UNL     1       4.060  41.873  11.807  1.00  0.00     0.000 C 
BRANCH   2   3
ATOM      3  C   UNL     1       4.415  40.606  12.607  1.00  0.00     0.000 C 
BRANCH   3   4
ATOM      4  C   UNL     1       3.284  39.559  12.655  1.00  0.00     0.000 C 
BRANCH   4   5
ATOM      5  C   UNL     1       2.026  40.096  13.358  1.00  0.00     0.000 C 
BRANCH   5   6
ATOM      6  C   UNL     1       0.831  39.131  13.273  1.00  0.00     0.000 C 
BRANCH   6   7
ATOM      7  C   UNL     1      -0.505  39.758  13.725  1.00  0.00     0.000 C 
BRANCH   7   8
ATOM      8  C   UNL     1      -0.302  41.094  14.457  1.00  0.00     0.000 C 
BRANCH   8   9
ATOM      9  C   UNL     1      -1.000  42.240  13.716  1.00  0.00     0.000 C 
BRANCH   9  10
ATOM     10  C   UNL     1      -0.014  42.984  12.801  1.00  0.00     0.000 C 
BRANCH  10  11
ATOM     11  C   UNL     1      -0.702  44.046  11.930  1.00  0.00     0.000 C 
BRANCH  11  12
ATOM     12  C   UNL     1       0.292  45.059  11.337  1.00  0.00     0.000 C 
BRANCH  12  13
ATOM     13  C   UNL     1       1.751  44.784  11.755  1.00  0.00     0.006 C 
BRANCH  13  14
ATOM     14  C   UNL     1       2.765  45.775  11.159  1.00  0.00     0.053 C 
BRANCH  14  15
ATOM     15  C   UNL     1       4.178  45.293  11.279  1.00  0.00     0.041 C 
ATOM     16  O   UNL     1       4.953  45.348  10.288  1.00  0.00    -0.550 OA
ATOM     17  O   UNL     1       4.635  44.763  12.481  1.00  0.00    -0.550 OA
ENDBRANCH  14  15
ENDBRANCH  13  14
ENDBRANCH  12  13
ENDBRANCH  11  12
ENDBRANCH  10  11
ENDBRANCH   9  10
ENDBRANCH   8   9
ENDBRANCH   7   8
ENDBRANCH   6   7
ENDBRANCH   5   6
ENDBRANCH   4   5
ENDBRANCH   3   4
ENDBRANCH   2   3
ENDBRANCH   1   2
BRANCH   1  18
ATOM     18  C   UNL     1       3.019  42.615   9.533  1.00  0.00     0.000 C 
BRANCH  18  19
ATOM     19  C   UNL     1       1.713  42.767   8.727  1.00  0.00     0.000 C 
BRANCH  19  20
ATOM     20  C   UNL     1       1.420  44.181   8.189  1.00  0.00     0.000 C 
BRANCH  20  21
ATOM     21  C   UNL     1      -0.057  44.422   7.815  1.00  0.00     0.000 C 
BRANCH  21  22
ATOM     22  C   UNL     1      -0.221  45.258   6.533  1.00  0.00     0.000 C 
BRANCH  22  23
ATOM     23  C   UNL     1      -0.861  46.630   6.806  1.00  0.00     0.000 C 
BRANCH  23  24
ATOM     24  C   UNL     1      -1.063  46.892   8.307  1.00  0.00    -0.000 C 
BRANCH  24  25
ATOM     25  C   UNL     1      -0.518  48.273   8.703  1.00  0.00    -0.000 C 
BRANCH  25  26
ATOM     26  C   UNL     1       0.786  48.624   7.970  1.00  0.00    -0.000 C 
BRANCH  26  27
ATOM     27  C   UNL     1       2.031  48.030   8.654  1.00  0.00    -0.000 C 
BRANCH  27  28
ATOM     28  C   UNL     1       3.157  47.706   7.659  1.00  0.00    -0.000 C 
BRANCH  28  29
ATOM     29  C   UNL     1       4.393  48.602   7.855  1.00  0.00    -0.000 C 
BRANCH  29  30
ATOM     30  C   UNL     1       5.389  48.033   8.882  1.00  0.00    -0.000 C 
BRANCH  30  31
ATOM     31  C   UNL     1       6.554  48.970   9.247  1.00  0.00    -0.003 C 
ATOM     32  C   UNL     1       6.437  50.350   8.598  1.00  0.00     0.004 C 
ENDBRANCH  30  31
ENDBRANCH  29  30
ENDBRANCH  28  29
ENDBRANCH  27  28
ENDBRANCH  26  27
ENDBRANCH  25  26
ENDBRANCH  24  25
ENDBRANCH  23  24
ENDBRANCH  22  23
ENDBRANCH  21  22
ENDBRANCH  20  21
ENDBRANCH  19  20
ENDBRANCH  18  19
ENDBRANCH   1  18
TORSDOF 28
ENDMDL
MODEL 9
REMARK VINA RESULT:    -2.425      2.373      4.663
REMARK INTER + INTRA:         -10.353
REMARK INTER:                  -7.472
REMARK INTRA:                  -2.881
REMARK UNBOUND:                -3.958
REMARK SMILES CCCCCCCCCCCCCCCCCCCCCCCCCCCCCC(=O)[O-]
REMARK SMILES IDX 16 1 17 2 18 3 19 4 20 5 21 6 22 7 23 8 24 9 25 10 26 11
REMARK SMILES IDX 27 12 28 13 29 14 30 15 31 16 32 17 15 18 14 19 13 20 12 21
REMARK SMILES IDX 11 22 10 23 9 24 8 25 7 26 6 27 5 28 4 29 3 30 2 31 1 32
REMARK H PARENT
REMARK Flexibility Score: inf
ROOT
ATOM      1  C   UNL     1       4.107  44.149   9.225  1.00  0.00     0.000 C 
ENDROOT
BRANCH   1   2
ATOM      2  C   UNL     1       3.424  45.531   9.127  1.00  0.00     0.000 C 
BRANCH   2   3
ATOM      3  C   UNL     1       3.767  46.492  10.281  1.00  0.00     0.000 C 
BRANCH   3   4
ATOM      4  C   UNL     1       5.278  46.614  10.565  1.00  0.00     0.000 C 
BRANCH   4   5
ATOM      5  C   UNL     1       6.075  46.994   9.306  1.00  0.00     0.000 C 
BRANCH   5   6
ATOM      6  C   UNL     1       6.455  48.485   9.263  1.00  0.00     0.000 C 
BRANCH   6   7
ATOM      7  C   UNL     1       5.538  49.330   8.354  1.00  0.00     0.000 C 
BRANCH   7   8
ATOM      8  C   UNL     1       4.496  48.472   7.619  1.00  0.00     0.000 C 
BRANCH   8   9
ATOM      9  C   UNL     1       3.147  49.197   7.532  1.00  0.00     0.000 C 
BRANCH   9  10
ATOM     10  C   UNL     1       1.985  48.191   7.499  1.00  0.00     0.000 C 
BRANCH  10  11
ATOM     11  C   UNL     1       1.031  48.350   8.693  1.00  0.00     0.000 C 
BRANCH  11  12
ATOM     12  C   UNL     1       0.316  47.038   9.057  1.00  0.00     0.000 C 
BRANCH  12  13
ATOM     13  C   UNL     1      -1.101  46.941   8.457  1.00  0.00     0.006 C 
BRANCH  13  14
ATOM     14  C   UNL     1      -1.125  46.478   6.990  1.00  0.00     0.053 C 
BRANCH  14  15
ATOM     15  C   UNL     1      -0.531  45.115   6.809  1.00  0.00     0.041 C 
ATOM     16  O   UNL     1       0.243  44.640   7.680  1.00  0.00    -0.550 OA
ATOM     17  O   UNL     1      -0.818  44.376   5.667  1.00  0.00    -0.550 OA
ENDBRANCH  14  15
ENDBRANCH  13  14
ENDBRANCH  12  13
ENDBRANCH  11  12
ENDBRANCH  10  11
ENDBRANCH   9  10
ENDBRANCH   8   9
ENDBRANCH   7   8
ENDBRANCH   6   7
ENDBRANCH   5   6
ENDBRANCH   4   5
ENDBRANCH   3   4
ENDBRANCH   2   3
ENDBRANCH   1   2
BRANCH   1  18
ATOM     18  C   UNL     1       3.156  42.936   9.123  1.00  0.00     0.000 C 
BRANCH  18  19
ATOM     19  C   UNL     1       2.962  42.125  10.421  1.00  0.00     0.000 C 
BRANCH  19  20
ATOM     20  C   UNL     1       4.056  42.308  11.492  1.00  0.00     0.000 C 
BRANCH  20  21
ATOM     21  C   UNL     1       3.824  43.509  12.433  1.00  0.00     0.000 C 
BRANCH  21  22
ATOM     22  C   UNL     1       2.346  43.685  12.824  1.00  0.00     0.000 C 
BRANCH  22  23
ATOM     23  C   UNL     1       1.583  44.589  11.840  1.00  0.00     0.000 C 
BRANCH  23  24
ATOM     24  C   UNL     1       0.196  44.031  11.489  1.00  0.00    -0.000 C 
BRANCH  24  25
ATOM     25  C   UNL     1      -0.615  43.729  12.758  1.00  0.00    -0.000 C 
BRANCH  25  26
ATOM     26  C   UNL     1      -0.909  42.230  12.927  1.00  0.00    -0.000 C 
BRANCH  26  27
ATOM     27  C   UNL     1      -0.877  41.781  14.400  1.00  0.00    -0.000 C 
BRANCH  27  28
ATOM     28  C   UNL     1       0.191  40.708  14.670  1.00  0.00    -0.000 C 
BRANCH  28  29
ATOM     29  C   UNL     1       1.198  40.575  13.514  1.00  0.00    -0.000 C 
BRANCH  29  30
ATOM     30  C   UNL     1       1.539  39.111  13.182  1.00  0.00    -0.000 C 
BRANCH  30  31
ATOM     31  C   UNL     1       2.888  38.902  12.472  1.00  0.00    -0.003 C 
ATOM     32  C   UNL     1       4.076  39.437  13.273  1.00  0.00     0.004 C 
ENDBRANCH  30  31
ENDBRANCH  29  30
ENDBRANCH  28  29
ENDBRANCH  27  28
ENDBRANCH  26  27
ENDBRANCH  25  26
ENDBRANCH  24  25
ENDBRANCH  23  24
ENDBRANCH  22  23
ENDBRANCH  21  22
ENDBRANCH  20  21
ENDBRANCH  19  20
ENDBRANCH  18  19
ENDBRANCH   1  18
TORSDOF 28
ENDMDL
