MODEL 1
REMARK VINA RESULT:     8.322      0.000      0.000
REMARK INTER + INTRA:          18.741
REMARK INTER:                  15.134
REMARK INTRA:                   3.607
REMARK UNBOUND:                 3.607
REMARK SMILES CCCCCCCCCCCCCCCC(=O)[O-]
REMARK SMILES IDX 9 1 10 2 11 3 12 4 13 5 14 6 15 7 16 8 17 9 18 10 8 11 7 12
REMARK SMILES IDX 6 13 5 14 4 15 3 16 2 17 1 18
REMARK H PARENT
REMARK Flexibility Score: inf
ROOT
ATOM      1  C   UNL     1       8.574   4.252  19.669  1.00  0.00     0.000 C 
ENDROOT
BRANCH   1   2
ATOM      2  C   UNL     1       8.992   3.110  20.608  1.00  0.00     0.000 C 
BRANCH   2   3
ATOM      3  C   UNL     1       9.835   2.037  19.896  1.00  0.00     0.000 C 
BRANCH   3   4
ATOM      4  C   UNL     1       8.972   0.917  19.292  1.00  0.00     0.000 C 
BRANCH   4   5
ATOM      5  C   UNL     1       8.382   1.300  17.925  1.00  0.00     0.000 C 
BRANCH   5   6
ATOM      6  C   UNL     1       7.381   2.465  18.014  1.00  0.00     0.006 C 
BRANCH   6   7
ATOM      7  C   UNL     1       5.907   2.041  17.909  1.00  0.00     0.053 C 
BRANCH   7   8
ATOM      8  C   UNL     1       5.466   1.243  19.097  1.00  0.00     0.041 C 
ATOM      9  O   UNL     1       4.334   0.694  19.106  1.00  0.00    -0.550 OA
ATOM     10  O   UNL     1       6.294   1.134  20.207  1.00  0.00    -0.550 OA
ENDBRANCH   7   8
ENDBRANCH   6   7
ENDBRANCH   5   6
ENDBRANCH   4   5
ENDBRANCH   3   4
ENDBRANCH   2   3
ENDBRANCH   1   2
BRANCH   1  11
ATOM     11  C   UNL     1       9.315   4.212  18.324  1.00  0.00     0.000 C 
BRANCH  11  12
ATOM     12  C   UNL     1      10.165   5.473  18.129  1.00  0.00    -0.000 C 
BRANCH  12  13
ATOM     13  C   UNL     1       9.532   6.679  18.839  1.00  0.00    -0.000 C 
BRANCH  13  14
ATOM     14  C   UNL     1       8.767   7.600  17.875  1.00  0.00    -0.000 C 
BRANCH  14  15
ATOM     15  C   UNL     1       7.243   7.538  18.080  1.00  0.00    -0.000 C 
BRANCH  15  16
ATOM     16  C   UNL     1       6.846   6.558  19.205  1.00  0.00    -0.000 C 
BRANCH  16  17
ATOM     17  C   UNL     1       6.069   5.329  18.705  1.00  0.00    -0.003 C 
ATOM     18  C   UNL     1       4.918   4.933  19.627  1.00  0.00     0.004 C 
ENDBRANCH  16  17
ENDBRANCH  15  16
ENDBRANCH  14  15
ENDBRANCH  13  14
ENDBRANCH  12  13
ENDBRANCH  11  12
ENDBRANCH   1  11
TORSDOF 14
ENDMDL
MODEL 2
REMARK VINA RESULT:    10.744      2.615      5.512
REMARK INTER + INTRA:          23.145
REMARK INTER:                  21.484
REMARK INTRA:                   1.661
REMARK UNBOUND:                 3.607
REMARK SMILES CCCCCCCCCCCCCCCC(=O)[O-]
REMARK SMILES IDX 9 1 10 2 11 3 12 4 13 5 14 6 15 7 16 8 17 9 18 10 8 11 7 12
REMARK SMILES IDX 6 13 5 14 4 15 3 16 2 17 1 18
REMARK H PARENT
REMARK Flexibility Score: inf
ROOT
ATOM      1  C   UNL     1       6.423   4.754  20.241  1.00  0.00     0.000 C 
ENDROOT
BRANCH   1   2
ATOM      2  C   UNL     1       5.664   5.250  19.001  1.00  0.00     0.000 C 
BRANCH   2   3
ATOM      3  C   UNL     1       6.607   5.730  17.883  1.00  0.00     0.000 C 
BRANCH   3   4
ATOM      4  C   UNL     1       6.787   7.257  17.881  1.00  0.00     0.000 C 
BRANCH   4   5
ATOM      5  C   UNL     1       7.344   7.785  19.214  1.00  0.00     0.000 C 
BRANCH   5   6
ATOM      6  C   UNL     1       8.823   7.418  19.428  1.00  0.00     0.006 C 
BRANCH   6   7
ATOM      7  C   UNL     1       9.466   6.670  18.248  1.00  0.00     0.053 C 
BRANCH   7   8
ATOM      8  C   UNL     1      10.447   5.636  18.707  1.00  0.00     0.041 C 
ATOM      9  O   UNL     1      10.979   4.855  17.875  1.00  0.00    -0.550 OA
ATOM     10  O   UNL     1      10.745   5.511  20.058  1.00  0.00    -0.550 OA
ENDBRANCH   7   8
ENDBRANCH   6   7
ENDBRANCH   5   6
ENDBRANCH   4   5
ENDBRANCH   3   4
ENDBRANCH   2   3
ENDBRANCH   1   2
BRANCH   1  11
ATOM     11  C   UNL     1       7.407   3.619  19.916  1.00  0.00     0.000 C 
BRANCH  11  12
ATOM     12  C   UNL     1       8.209   3.934  18.649  1.00  0.00    -0.000 C 
BRANCH  12  13
ATOM     13  C   UNL     1       8.542   2.650  17.875  1.00  0.00    -0.000 C 
BRANCH  13  14
ATOM     14  C   UNL     1       8.353   1.382  18.723  1.00  0.00    -0.000 C 
BRANCH  14  15
ATOM     15  C   UNL     1       7.633   0.257  17.958  1.00  0.00    -0.000 C 
BRANCH  15  16
ATOM     16  C   UNL     1       6.109   0.493  17.877  1.00  0.00    -0.000 C 
BRANCH  16  17
ATOM     17  C   UNL     1       5.506   1.066  19.170  1.00  0.00    -0.003 C 
ATOM     18  C   UNL     1       4.058   1.524  19.003  1.00  0.00     0.004 C 
ENDBRANCH  16  17
ENDBRANCH  15  16
ENDBRANCH  14  15
ENDBRANCH  13  14
ENDBRANCH  12  13
ENDBRANCH  11  12
ENDBRANCH   1  11
TORSDOF 14
ENDMDL
MODEL 3
REMARK VINA RESULT:    11.169      1.699      4.409
REMARK INTER + INTRA:          23.918
REMARK INTER:                  22.163
REMARK INTRA:                   1.755
REMARK UNBOUND:                 3.607
REMARK SMILES CCCCCCCCCCCCCCCC(=O)[O-]
REMARK SMILES IDX 9 1 10 2 11 3 12 4 13 5 14 6 15 7 16 8 17 9 18 10 8 11 7 12
REMARK SMILES IDX 6 13 5 14 4 15 3 16 2 17 1 18
REMARK H PARENT
REMARK Flexibility Score: inf
ROOT
ATOM      1  C   UNL     1       9.937   5.170  19.578  1.00  0.00     0.000 C 
ENDROOT
BRANCH   1   2
ATOM      2  C   UNL     1       8.927   5.636  18.519  1.00  0.00     0.000 C 
BRANCH   2   3
ATOM      3  C   UNL     1       9.322   6.978  17.875  1.00  0.00     0.000 C 
BRANCH   3   4
ATOM      4  C   UNL     1       8.329   8.103  18.208  1.00  0.00     0.000 C 
BRANCH   4   5
ATOM      5  C   UNL     1       7.106   7.598  18.992  1.00  0.00     0.000 C 
BRANCH   5   6
ATOM      6  C   UNL     1       6.311   6.525  18.226  1.00  0.00     0.006 C 
BRANCH   6   7
ATOM      7  C   UNL     1       6.309   5.142  18.897  1.00  0.00     0.053 C 
BRANCH   7   8
ATOM      8  C   UNL     1       5.036   4.881  19.641  1.00  0.00     0.041 C 
ATOM      9  O   UNL     1       3.930   5.213  19.141  1.00  0.00    -0.550 OA
ATOM     10  O   UNL     1       5.074   4.302  20.904  1.00  0.00    -0.550 OA
ENDBRANCH   7   8
ENDBRANCH   6   7
ENDBRANCH   5   6
ENDBRANCH   4   5
ENDBRANCH   3   4
ENDBRANCH   2   3
ENDBRANCH   1   2
BRANCH   1  11
ATOM     11  C   UNL     1      11.359   5.022  19.015  1.00  0.00     0.000 C 
BRANCH  11  12
ATOM     12  C   UNL     1      11.435   3.864  18.012  1.00  0.00    -0.000 C 
BRANCH  12  13
ATOM     13  C   UNL     1      10.074   3.166  17.875  1.00  0.00    -0.000 C 
BRANCH  13  14
ATOM     14  C   UNL     1       9.730   2.292  19.091  1.00  0.00    -0.000 C 
BRANCH  14  15
ATOM     15  C   UNL     1       8.214   2.138  19.304  1.00  0.00    -0.000 C 
BRANCH  15  16
ATOM     16  C   UNL     1       7.443   2.075  17.967  1.00  0.00    -0.000 C 
BRANCH  16  17
ATOM     17  C   UNL     1       6.039   1.460  18.095  1.00  0.00    -0.003 C 
ATOM     18  C   UNL     1       5.646   1.165  19.541  1.00  0.00     0.004 C 
ENDBRANCH  16  17
ENDBRANCH  15  16
ENDBRANCH  14  15
ENDBRANCH  13  14
ENDBRANCH  12  13
ENDBRANCH  11  12
ENDBRANCH   1  11
TORSDOF 14
ENDMDL
MODEL 4
REMARK VINA RESULT:    11.299      1.706      4.622
REMARK INTER + INTRA:          24.154
REMARK INTER:                  17.946
REMARK INTRA:                   6.208
REMARK UNBOUND:                 3.607
REMARK SMILES CCCCCCCCCCCCCCCC(=O)[O-]
REMARK SMILES IDX 9 1 10 2 11 3 12 4 13 5 14 6 15 7 16 8 17 9 18 10 8 11 7 12
REMARK SMILES IDX 6 13 5 14 4 15 3 16 2 17 1 18
REMARK H PARENT
REMARK Flexibility Score: inf
ROOT
ATOM      1  C   UNL     1       9.869   4.123  18.772  1.00  0.00     0.000 C 
ENDROOT
BRANCH   1   2
ATOM      2  C   UNL     1      10.561   5.165  17.881  1.00  0.00     0.000 C 
BRANCH   2   3
ATOM      3  C   UNL     1      10.004   6.585  18.088  1.00  0.00     0.000 C 
BRANCH   3   4
ATOM      4  C   UNL     1       9.241   6.729  19.415  1.00  0.00     0.000 C 
BRANCH   4   5
ATOM      5  C   UNL     1       7.759   7.084  19.207  1.00  0.00     0.000 C 
BRANCH   5   6
ATOM      6  C   UNL     1       7.200   6.550  17.877  1.00  0.00     0.006 C 
BRANCH   6   7
ATOM      7  C   UNL     1       6.582   5.146  17.970  1.00  0.00     0.053 C 
BRANCH   7   8
ATOM      8  C   UNL     1       6.735   4.555  19.338  1.00  0.00     0.041 C 
ATOM      9  O   UNL     1       5.915   4.843  20.248  1.00  0.00    -0.550 OA
ATOM     10  O   UNL     1       7.805   3.713  19.615  1.00  0.00    -0.550 OA
ENDBRANCH   7   8
ENDBRANCH   6   7
ENDBRANCH   5   6
ENDBRANCH   4   5
ENDBRANCH   3   4
ENDBRANCH   2   3
ENDBRANCH   1   2
BRANCH   1  11
ATOM     11  C   UNL     1      10.007   2.694  18.226  1.00  0.00     0.000 C 
BRANCH  11  12
ATOM     12  C   UNL     1       9.660   1.658  19.302  1.00  0.00    -0.000 C 
BRANCH  12  13
ATOM     13  C   UNL     1       9.254   0.320  18.667  1.00  0.00    -0.000 C 
BRANCH  13  14
ATOM     14  C   UNL     1       7.940   0.414  17.876  1.00  0.00    -0.000 C 
BRANCH  14  15
ATOM     15  C   UNL     1       7.251   1.782  18.029  1.00  0.00    -0.000 C 
BRANCH  15  16
ATOM     16  C   UNL     1       6.349   1.843  19.280  1.00  0.00    -0.000 C 
BRANCH  16  17
ATOM     17  C   UNL     1       5.241   0.777  19.292  1.00  0.00    -0.003 C 
ATOM     18  C   UNL     1       3.955   1.242  18.611  1.00  0.00     0.004 C 
ENDBRANCH  16  17
ENDBRANCH  15  16
ENDBRANCH  14  15
ENDBRANCH  13  14
ENDBRANCH  12  13
ENDBRANCH  11  12
ENDBRANCH   1  11
TORSDOF 14
ENDMDL
