MODEL 1
REMARK VINA RESULT:    -5.308      0.000      0.000
REMARK INTER + INTRA:         -16.121
REMARK INTER:                 -13.997
REMARK INTRA:                  -2.124
REMARK UNBOUND:                -2.124
REMARK SMILES CCCCCCCCCCCCCCCCCCCCCCCCCCCCCC(=O)[O-]
REMARK SMILES IDX 16 1 17 2 18 3 19 4 20 5 21 6 22 7 23 8 24 9 25 10 26 11
REMARK SMILES IDX 27 12 28 13 29 14 30 15 31 16 32 17 15 18 14 19 13 20 12 21
REMARK SMILES IDX 11 22 10 23 9 24 8 25 7 26 6 27 5 28 4 29 3 30 2 31 1 32
REMARK H PARENT
REMARK Flexibility Score: inf
ROOT
ATOM      1  C   UNL     1      23.113  -2.987  59.265  1.00  0.00     0.000 C 
ENDROOT
BRANCH   1   2
ATOM      2  C   UNL     1      23.603  -4.057  60.248  1.00  0.00     0.000 C 
BRANCH   2   3
ATOM      3  C   UNL     1      23.262  -3.667  61.694  1.00  0.00     0.000 C 
BRANCH   3   4
ATOM      4  C   UNL     1      24.404  -2.918  62.404  1.00  0.00     0.000 C 
BRANCH   4   5
ATOM      5  C   UNL     1      25.706  -2.779  61.590  1.00  0.00     0.000 C 
BRANCH   5   6
ATOM      6  C   UNL     1      26.182  -1.335  61.346  1.00  0.00     0.000 C 
BRANCH   6   7
ATOM      7  C   UNL     1      25.247  -0.286  61.966  1.00  0.00     0.000 C 
BRANCH   7   8
ATOM      8  C   UNL     1      26.011   0.775  62.776  1.00  0.00     0.000 C 
BRANCH   8   9
ATOM      9  C   UNL     1      25.586   2.208  62.418  1.00  0.00     0.000 C 
BRANCH   9  10
ATOM     10  C   UNL     1      25.844   3.205  63.562  1.00  0.00     0.000 C 
BRANCH  10  11
ATOM     11  C   UNL     1      25.205   2.779  64.902  1.00  0.00     0.000 C 
BRANCH  11  12
ATOM     12  C   UNL     1      23.901   3.542  65.192  1.00  0.00     0.000 C 
BRANCH  12  13
ATOM     13  C   UNL     1      22.673   2.618  65.286  1.00  0.00     0.006 C 
BRANCH  13  14
ATOM     14  C   UNL     1      21.631   2.827  64.177  1.00  0.00     0.053 C 
BRANCH  14  15
ATOM     15  C   UNL     1      22.062   2.217  62.877  1.00  0.00     0.041 C 
ATOM     16  O   UNL     1      21.896   0.988  62.668  1.00  0.00    -0.550 OA
ATOM     17  O   UNL     1      22.671   3.002  61.906  1.00  0.00    -0.550 OA
ENDBRANCH  14  15
ENDBRANCH  13  14
ENDBRANCH  12  13
ENDBRANCH  11  12
ENDBRANCH  10  11
ENDBRANCH   9  10
ENDBRANCH   8   9
ENDBRANCH   7   8
ENDBRANCH   6   7
ENDBRANCH   5   6
ENDBRANCH   4   5
ENDBRANCH   3   4
ENDBRANCH   2   3
ENDBRANCH   1   2
BRANCH   1  18
ATOM     18  C   UNL     1      24.026  -2.909  58.030  1.00  0.00     0.000 C 
BRANCH  18  19
ATOM     19  C   UNL     1      23.243  -2.654  56.729  1.00  0.00     0.000 C 
BRANCH  19  20
ATOM     20  C   UNL     1      23.571  -3.623  55.575  1.00  0.00     0.000 C 
BRANCH  20  21
ATOM     21  C   UNL     1      23.295  -3.074  54.163  1.00  0.00     0.000 C 
BRANCH  21  22
ATOM     22  C   UNL     1      22.050  -2.174  54.036  1.00  0.00     0.000 C 
BRANCH  22  23
ATOM     23  C   UNL     1      21.729  -1.736  52.590  1.00  0.00     0.000 C 
BRANCH  23  24
ATOM     24  C   UNL     1      20.459  -0.875  52.496  1.00  0.00    -0.000 C 
BRANCH  24  25
ATOM     25  C   UNL     1      19.653  -0.921  53.805  1.00  0.00    -0.000 C 
BRANCH  25  26
ATOM     26  C   UNL     1      18.468   0.058  53.814  1.00  0.00    -0.000 C 
BRANCH  26  27
ATOM     27  C   UNL     1      17.588   0.050  52.547  1.00  0.00    -0.000 C 
BRANCH  27  28
ATOM     28  C   UNL     1      16.952   1.414  52.208  1.00  0.00    -0.000 C 
BRANCH  28  29
ATOM     29  C   UNL     1      16.921   2.379  53.405  1.00  0.00    -0.000 C 
BRANCH  29  30
ATOM     30  C   UNL     1      15.494   2.783  53.812  1.00  0.00    -0.000 C 
BRANCH  30  31
ATOM     31  C   UNL     1      14.843   1.827  54.835  1.00  0.00    -0.003 C 
ATOM     32  C   UNL     1      15.665   1.699  56.119  1.00  0.00     0.004 C 
ENDBRANCH  30  31
ENDBRANCH  29  30
ENDBRANCH  28  29
ENDBRANCH  27  28
ENDBRANCH  26  27
ENDBRANCH  25  26
ENDBRANCH  24  25
ENDBRANCH  23  24
ENDBRANCH  22  23
ENDBRANCH  21  22
ENDBRANCH  20  21
ENDBRANCH  19  20
ENDBRANCH  18  19
ENDBRANCH   1  18
TORSDOF 28
ENDMDL
MODEL 2
REMARK VINA RESULT:    -5.277      1.837      3.891
REMARK INTER + INTRA:         -16.038
REMARK INTER:                 -13.179
REMARK INTRA:                  -2.859
REMARK UNBOUND:                -2.124
REMARK SMILES CCCCCCCCCCCCCCCCCCCCCCCCCCCCCC(=O)[O-]
REMARK SMILES IDX 16 1 17 2 18 3 19 4 20 5 21 6 22 7 23 8 24 9 25 10 26 11
REMARK SMILES IDX 27 12 28 13 29 14 30 15 31 16 32 17 15 18 14 19 13 20 12 21
REMARK SMILES IDX 11 22 10 23 9 24 8 25 7 26 6 27 5 28 4 29 3 30 2 31 1 32
REMARK H PARENT
REMARK Flexibility Score: inf
ROOT
ATOM      1  C   UNL     1      21.393  -2.249  60.959  1.00  0.00     0.000 C 
ENDROOT
BRANCH   1   2
ATOM      2  C   UNL     1      21.903  -1.133  61.879  1.00  0.00     0.000 C 
BRANCH   2   3
ATOM      3  C   UNL     1      20.989   0.099  61.801  1.00  0.00     0.000 C 
BRANCH   3   4
ATOM      4  C   UNL     1      21.704   1.408  62.182  1.00  0.00     0.000 C 
BRANCH   4   5
ATOM      5  C   UNL     1      21.404   1.932  63.601  1.00  0.00     0.000 C 
BRANCH   5   6
ATOM      6  C   UNL     1      22.222   3.161  64.038  1.00  0.00     0.000 C 
BRANCH   6   7
ATOM      7  C   UNL     1      23.299   2.821  65.080  1.00  0.00     0.000 C 
BRANCH   7   8
ATOM      8  C   UNL     1      24.703   3.268  64.641  1.00  0.00     0.000 C 
BRANCH   8   9
ATOM      9  C   UNL     1      24.710   3.898  63.239  1.00  0.00     0.000 C 
BRANCH   9  10
ATOM     10  C   UNL     1      25.293   2.957  62.171  1.00  0.00     0.000 C 
BRANCH  10  11
ATOM     11  C   UNL     1      25.897   1.662  62.757  1.00  0.00     0.000 C 
BRANCH  11  12
ATOM     12  C   UNL     1      25.136   0.406  62.297  1.00  0.00     0.000 C 
BRANCH  12  13
ATOM     13  C   UNL     1      26.071  -0.728  61.840  1.00  0.00     0.006 C 
BRANCH  13  14
ATOM     14  C   UNL     1      25.439  -1.713  60.844  1.00  0.00     0.053 C 
BRANCH  14  15
ATOM     15  C   UNL     1      25.175  -3.051  61.465  1.00  0.00     0.041 C 
ATOM     16  O   UNL     1      25.442  -4.107  60.835  1.00  0.00    -0.550 OA
ATOM     17  O   UNL     1      24.609  -3.132  62.731  1.00  0.00    -0.550 OA
ENDBRANCH  14  15
ENDBRANCH  13  14
ENDBRANCH  12  13
ENDBRANCH  11  12
ENDBRANCH  10  11
ENDBRANCH   9  10
ENDBRANCH   8   9
ENDBRANCH   7   8
ENDBRANCH   6   7
ENDBRANCH   5   6
ENDBRANCH   4   5
ENDBRANCH   3   4
ENDBRANCH   2   3
ENDBRANCH   1   2
BRANCH   1  18
ATOM     18  C   UNL     1      21.553  -1.866  59.480  1.00  0.00     0.000 C 
BRANCH  18  19
ATOM     19  C   UNL     1      22.584  -2.743  58.748  1.00  0.00     0.000 C 
BRANCH  19  20
ATOM     20  C   UNL     1      22.892  -2.310  57.300  1.00  0.00     0.000 C 
BRANCH  20  21
ATOM     21  C   UNL     1      23.662  -3.344  56.458  1.00  0.00     0.000 C 
BRANCH  21  22
ATOM     22  C   UNL     1      23.300  -3.378  54.960  1.00  0.00     0.000 C 
BRANCH  22  23
ATOM     23  C   UNL     1      22.555  -2.121  54.459  1.00  0.00     0.000 C 
BRANCH  23  24
ATOM     24  C   UNL     1      22.093  -2.243  52.998  1.00  0.00    -0.000 C 
BRANCH  24  25
ATOM     25  C   UNL     1      21.155  -1.088  52.609  1.00  0.00    -0.000 C 
BRANCH  25  26
ATOM     26  C   UNL     1      19.818  -1.120  53.365  1.00  0.00    -0.000 C 
BRANCH  26  27
ATOM     27  C   UNL     1      18.907   0.109  53.160  1.00  0.00    -0.000 C 
BRANCH  27  28
ATOM     28  C   UNL     1      17.545  -0.212  52.511  1.00  0.00    -0.000 C 
BRANCH  28  29
ATOM     29  C   UNL     1      16.673   1.036  52.291  1.00  0.00    -0.000 C 
BRANCH  29  30
ATOM     30  C   UNL     1      17.035   2.193  53.237  1.00  0.00    -0.000 C 
BRANCH  30  31
ATOM     31  C   UNL     1      16.079   2.337  54.440  1.00  0.00    -0.003 C 
ATOM     32  C   UNL     1      16.721   1.888  55.753  1.00  0.00     0.004 C 
ENDBRANCH  30  31
ENDBRANCH  29  30
ENDBRANCH  28  29
ENDBRANCH  27  28
ENDBRANCH  26  27
ENDBRANCH  25  26
ENDBRANCH  24  25
ENDBRANCH  23  24
ENDBRANCH  22  23
ENDBRANCH  21  22
ENDBRANCH  20  21
ENDBRANCH  19  20
ENDBRANCH  18  19
ENDBRANCH   1  18
TORSDOF 28
ENDMDL
MODEL 3
REMARK VINA RESULT:    -5.267      2.775     10.011
REMARK INTER + INTRA:         -16.012
REMARK INTER:                 -13.203
REMARK INTRA:                  -2.809
REMARK UNBOUND:                -2.124
REMARK SMILES CCCCCCCCCCCCCCCCCCCCCCCCCCCCCC(=O)[O-]
REMARK SMILES IDX 16 1 17 2 18 3 19 4 20 5 21 6 22 7 23 8 24 9 25 10 26 11
REMARK SMILES IDX 27 12 28 13 29 14 30 15 31 16 32 17 15 18 14 19 13 20 12 21
REMARK SMILES IDX 11 22 10 23 9 24 8 25 7 26 6 27 5 28 4 29 3 30 2 31 1 32
REMARK H PARENT
REMARK Flexibility Score: inf
ROOT
ATOM      1  C   UNL     1      24.167  -3.430  60.656  1.00  0.00     0.000 C 
ENDROOT
BRANCH   1   2
ATOM      2  C   UNL     1      25.377  -3.385  59.715  1.00  0.00     0.000 C 
BRANCH   2   3
ATOM      3  C   UNL     1      24.942  -3.041  58.283  1.00  0.00     0.000 C 
BRANCH   3   4
ATOM      4  C   UNL     1      23.421  -2.855  58.141  1.00  0.00     0.000 C 
BRANCH   4   5
ATOM      5  C   UNL     1      22.915  -2.648  56.699  1.00  0.00     0.000 C 
BRANCH   5   6
ATOM      6  C   UNL     1      23.531  -3.583  55.641  1.00  0.00     0.000 C 
BRANCH   6   7
ATOM      7  C   UNL     1      23.356  -3.059  54.208  1.00  0.00     0.000 C 
BRANCH   7   8
ATOM      8  C   UNL     1      22.048  -2.274  54.025  1.00  0.00     0.000 C 
BRANCH   8   9
ATOM      9  C   UNL     1      21.848  -1.788  52.580  1.00  0.00     0.000 C 
BRANCH   9  10
ATOM     10  C   UNL     1      20.627  -0.865  52.429  1.00  0.00     0.000 C 
BRANCH  10  11
ATOM     11  C   UNL     1      19.687  -0.885  53.654  1.00  0.00     0.000 C 
BRANCH  11  12
ATOM     12  C   UNL     1      18.457   0.018  53.458  1.00  0.00     0.000 C 
BRANCH  12  13
ATOM     13  C   UNL     1      17.973   0.665  54.768  1.00  0.00     0.006 C 
BRANCH  13  14
ATOM     14  C   UNL     1      17.153   1.951  54.579  1.00  0.00     0.053 C 
BRANCH  14  15
ATOM     15  C   UNL     1      15.716   1.765  54.964  1.00  0.00     0.041 C 
ATOM     16  O   UNL     1      15.274   2.273  56.027  1.00  0.00    -0.550 OA
ATOM     17  O   UNL     1      14.872   1.007  54.163  1.00  0.00    -0.550 OA
ENDBRANCH  14  15
ENDBRANCH  13  14
ENDBRANCH  12  13
ENDBRANCH  11  12
ENDBRANCH  10  11
ENDBRANCH   9  10
ENDBRANCH   8   9
ENDBRANCH   7   8
ENDBRANCH   6   7
ENDBRANCH   5   6
ENDBRANCH   4   5
ENDBRANCH   3   4
ENDBRANCH   2   3
ENDBRANCH   1   2
BRANCH   1  18
ATOM     18  C   UNL     1      24.536  -2.925  62.059  1.00  0.00     0.000 C 
BRANCH  18  19
ATOM     19  C   UNL     1      25.551  -1.767  62.025  1.00  0.00     0.000 C 
BRANCH  19  20
ATOM     20  C   UNL     1      24.927  -0.363  61.891  1.00  0.00     0.000 C 
BRANCH  20  21
ATOM     21  C   UNL     1      25.718   0.771  62.571  1.00  0.00     0.000 C 
BRANCH  21  22
ATOM     22  C   UNL     1      25.425   2.189  62.042  1.00  0.00     0.000 C 
BRANCH  22  23
ATOM     23  C   UNL     1      25.466   3.290  63.124  1.00  0.00     0.000 C 
BRANCH  23  24
ATOM     24  C   UNL     1      25.979   2.777  64.478  1.00  0.00    -0.000 C 
BRANCH  24  25
ATOM     25  C   UNL     1      24.929   2.973  65.585  1.00  0.00    -0.000 C 
BRANCH  25  26
ATOM     26  C   UNL     1      23.594   3.524  65.056  1.00  0.00    -0.000 C 
BRANCH  26  27
ATOM     27  C   UNL     1      22.382   2.580  65.197  1.00  0.00    -0.000 C 
BRANCH  27  28
ATOM     28  C   UNL     1      21.400   2.628  64.009  1.00  0.00    -0.000 C 
BRANCH  28  29
ATOM     29  C   UNL     1      21.895   1.839  62.784  1.00  0.00    -0.000 C 
BRANCH  29  30
ATOM     30  C   UNL     1      21.317   0.415  62.717  1.00  0.00    -0.000 C 
BRANCH  30  31
ATOM     31  C   UNL     1      20.995  -0.060  61.284  1.00  0.00    -0.003 C 
ATOM     32  C   UNL     1      21.369  -1.526  61.058  1.00  0.00     0.004 C 
ENDBRANCH  30  31
ENDBRANCH  29  30
ENDBRANCH  28  29
ENDBRANCH  27  28
ENDBRANCH  26  27
ENDBRANCH  25  26
ENDBRANCH  24  25
ENDBRANCH  23  24
ENDBRANCH  22  23
ENDBRANCH  21  22
ENDBRANCH  20  21
ENDBRANCH  19  20
ENDBRANCH  18  19
ENDBRANCH   1  18
TORSDOF 28
ENDMDL
MODEL 4
REMARK VINA RESULT:    -5.264      2.216     10.237
REMARK INTER + INTRA:         -16.005
REMARK INTER:                 -13.371
REMARK INTRA:                  -2.634
REMARK UNBOUND:                -2.124
REMARK SMILES CCCCCCCCCCCCCCCCCCCCCCCCCCCCCC(=O)[O-]
REMARK SMILES IDX 16 1 17 2 18 3 19 4 20 5 21 6 22 7 23 8 24 9 25 10 26 11
REMARK SMILES IDX 27 12 28 13 29 14 30 15 31 16 32 17 15 18 14 19 13 20 12 21
REMARK SMILES IDX 11 22 10 23 9 24 8 25 7 26 6 27 5 28 4 29 3 30 2 31 1 32
REMARK H PARENT
REMARK Flexibility Score: inf
ROOT
ATOM      1  C   UNL     1      24.888  -3.001  58.521  1.00  0.00     0.000 C 
ENDROOT
BRANCH   1   2
ATOM      2  C   UNL     1      23.361  -2.884  58.447  1.00  0.00     0.000 C 
BRANCH   2   3
ATOM      3  C   UNL     1      22.904  -2.588  57.011  1.00  0.00     0.000 C 
BRANCH   3   4
ATOM      4  C   UNL     1      23.648  -3.425  55.955  1.00  0.00     0.000 C 
BRANCH   4   5
ATOM      5  C   UNL     1      23.427  -2.988  54.493  1.00  0.00     0.000 C 
BRANCH   5   6
ATOM      6  C   UNL     1      21.977  -2.621  54.125  1.00  0.00     0.000 C 
BRANCH   6   7
ATOM      7  C   UNL     1      21.841  -2.100  52.686  1.00  0.00     0.000 C 
BRANCH   7   8
ATOM      8  C   UNL     1      20.969  -0.837  52.599  1.00  0.00     0.000 C 
BRANCH   8   9
ATOM      9  C   UNL     1      19.636  -0.987  53.349  1.00  0.00     0.000 C 
BRANCH   9  10
ATOM     10  C   UNL     1      18.751   0.267  53.240  1.00  0.00     0.000 C 
BRANCH  10  11
ATOM     11  C   UNL     1      17.390   0.001  52.560  1.00  0.00     0.000 C 
BRANCH  11  12
ATOM     12  C   UNL     1      16.648   1.304  52.215  1.00  0.00     0.000 C 
BRANCH  12  13
ATOM     13  C   UNL     1      16.424   2.209  53.440  1.00  0.00     0.006 C 
BRANCH  13  14
ATOM     14  C   UNL     1      15.668   1.539  54.598  1.00  0.00     0.053 C 
BRANCH  14  15
ATOM     15  C   UNL     1      16.287   1.848  55.927  1.00  0.00     0.041 C 
ATOM     16  O   UNL     1      15.565   2.204  56.895  1.00  0.00    -0.550 OA
ATOM     17  O   UNL     1      17.664   1.768  56.091  1.00  0.00    -0.550 OA
ENDBRANCH  14  15
ENDBRANCH  13  14
ENDBRANCH  12  13
ENDBRANCH  11  12
ENDBRANCH  10  11
ENDBRANCH   9  10
ENDBRANCH   8   9
ENDBRANCH   7   8
ENDBRANCH   6   7
ENDBRANCH   5   6
ENDBRANCH   4   5
ENDBRANCH   3   4
ENDBRANCH   2   3
ENDBRANCH   1   2
BRANCH   1  18
ATOM     18  C   UNL     1      25.335  -3.602  59.862  1.00  0.00     0.000 C 
BRANCH  18  19
ATOM     19  C   UNL     1      24.181  -3.716  60.875  1.00  0.00     0.000 C 
BRANCH  19  20
ATOM     20  C   UNL     1      24.311  -2.802  62.111  1.00  0.00     0.000 C 
BRANCH  20  21
ATOM     21  C   UNL     1      25.430  -1.747  62.028  1.00  0.00     0.000 C 
BRANCH  21  22
ATOM     22  C   UNL     1      24.953  -0.291  61.855  1.00  0.00     0.000 C 
BRANCH  22  23
ATOM     23  C   UNL     1      25.854   0.758  62.542  1.00  0.00     0.000 C 
BRANCH  23  24
ATOM     24  C   UNL     1      25.436   2.203  62.226  1.00  0.00    -0.000 C 
BRANCH  24  25
ATOM     25  C   UNL     1      25.868   3.167  63.343  1.00  0.00    -0.000 C 
BRANCH  25  26
ATOM     26  C   UNL     1      25.574   2.625  64.752  1.00  0.00    -0.000 C 
BRANCH  26  27
ATOM     27  C   UNL     1      24.127   2.821  65.251  1.00  0.00    -0.000 C 
BRANCH  27  28
ATOM     28  C   UNL     1      23.359   3.955  64.541  1.00  0.00    -0.000 C 
BRANCH  28  29
ATOM     29  C   UNL     1      22.113   3.459  63.787  1.00  0.00    -0.000 C 
BRANCH  29  30
ATOM     30  C   UNL     1      21.979   1.927  63.796  1.00  0.00    -0.000 C 
BRANCH  30  31
ATOM     31  C   UNL     1      21.724   1.314  62.402  1.00  0.00    -0.003 C 
ATOM     32  C   UNL     1      21.205  -0.122  62.482  1.00  0.00     0.004 C 
ENDBRANCH  30  31
ENDBRANCH  29  30
ENDBRANCH  28  29
ENDBRANCH  27  28
ENDBRANCH  26  27
ENDBRANCH  25  26
ENDBRANCH  24  25
ENDBRANCH  23  24
ENDBRANCH  22  23
ENDBRANCH  21  22
ENDBRANCH  20  21
ENDBRANCH  19  20
ENDBRANCH  18  19
ENDBRANCH   1  18
TORSDOF 28
ENDMDL
MODEL 5
REMARK VINA RESULT:    -5.234      1.303      3.018
REMARK INTER + INTRA:         -15.926
REMARK INTER:                 -13.588
REMARK INTRA:                  -2.338
REMARK UNBOUND:                -2.124
REMARK SMILES CCCCCCCCCCCCCCCCCCCCCCCCCCCCCC(=O)[O-]
REMARK SMILES IDX 16 1 17 2 18 3 19 4 20 5 21 6 22 7 23 8 24 9 25 10 26 11
REMARK SMILES IDX 27 12 28 13 29 14 30 15 31 16 32 17 15 18 14 19 13 20 12 21
REMARK SMILES IDX 11 22 10 23 9 24 8 25 7 26 6 27 5 28 4 29 3 30 2 31 1 32
REMARK H PARENT
REMARK Flexibility Score: inf
ROOT
ATOM      1  C   UNL     1      25.456  -3.521  60.911  1.00  0.00     0.000 C 
ENDROOT
BRANCH   1   2
ATOM      2  C   UNL     1      25.411  -2.497  62.052  1.00  0.00     0.000 C 
BRANCH   2   3
ATOM      3  C   UNL     1      25.923  -1.128  61.577  1.00  0.00     0.000 C 
BRANCH   3   4
ATOM      4  C   UNL     1      25.137   0.052  62.176  1.00  0.00     0.000 C 
BRANCH   4   5
ATOM      5  C   UNL     1      26.000   1.206  62.725  1.00  0.00     0.000 C 
BRANCH   5   6
ATOM      6  C   UNL     1      25.508   2.623  62.376  1.00  0.00     0.000 C 
BRANCH   6   7
ATOM      7  C   UNL     1      25.594   3.593  63.564  1.00  0.00     0.000 C 
BRANCH   7   8
ATOM      8  C   UNL     1      25.520   2.871  64.919  1.00  0.00     0.000 C 
BRANCH   8   9
ATOM      9  C   UNL     1      24.394   3.412  65.815  1.00  0.00     0.000 C 
BRANCH   9  10
ATOM     10  C   UNL     1      23.055   2.689  65.583  1.00  0.00     0.000 C 
BRANCH  10  11
ATOM     11  C   UNL     1      22.236   3.276  64.413  1.00  0.00     0.000 C 
BRANCH  11  12
ATOM     12  C   UNL     1      21.189   2.281  63.881  1.00  0.00     0.000 C 
BRANCH  12  13
ATOM     13  C   UNL     1      21.760   1.316  62.827  1.00  0.00     0.006 C 
BRANCH  13  14
ATOM     14  C   UNL     1      21.020  -0.028  62.725  1.00  0.00     0.053 C 
BRANCH  14  15
ATOM     15  C   UNL     1      21.339  -0.751  61.453  1.00  0.00     0.041 C 
ATOM     16  O   UNL     1      20.976  -0.277  60.345  1.00  0.00    -0.550 OA
ATOM     17  O   UNL     1      22.014  -1.965  61.490  1.00  0.00    -0.550 OA
ENDBRANCH  14  15
ENDBRANCH  13  14
ENDBRANCH  12  13
ENDBRANCH  11  12
ENDBRANCH  10  11
ENDBRANCH   9  10
ENDBRANCH   8   9
ENDBRANCH   7   8
ENDBRANCH   6   7
ENDBRANCH   5   6
ENDBRANCH   4   5
ENDBRANCH   3   4
ENDBRANCH   2   3
ENDBRANCH   1   2
BRANCH   1  18
ATOM     18  C   UNL     1      25.668  -2.831  59.555  1.00  0.00     0.000 C 
BRANCH  18  19
ATOM     19  C   UNL     1      24.807  -3.444  58.436  1.00  0.00     0.000 C 
BRANCH  19  20
ATOM     20  C   UNL     1      23.402  -2.826  58.287  1.00  0.00     0.000 C 
BRANCH  20  21
ATOM     21  C   UNL     1      22.955  -2.561  56.837  1.00  0.00     0.000 C 
BRANCH  21  22
ATOM     22  C   UNL     1      23.543  -3.517  55.780  1.00  0.00     0.000 C 
BRANCH  22  23
ATOM     23  C   UNL     1      23.348  -3.047  54.322  1.00  0.00     0.000 C 
BRANCH  23  24
ATOM     24  C   UNL     1      22.179  -2.063  54.163  1.00  0.00    -0.000 C 
BRANCH  24  25
ATOM     25  C   UNL     1      21.654  -2.045  52.718  1.00  0.00    -0.000 C 
BRANCH  25  26
ATOM     26  C   UNL     1      20.729  -0.851  52.430  1.00  0.00    -0.000 C 
BRANCH  26  27
ATOM     27  C   UNL     1      19.479  -0.746  53.328  1.00  0.00    -0.000 C 
BRANCH  27  28
ATOM     28  C   UNL     1      18.258  -0.097  52.644  1.00  0.00    -0.000 C 
BRANCH  28  29
ATOM     29  C   UNL     1      17.707   1.114  53.417  1.00  0.00    -0.000 C 
BRANCH  29  30
ATOM     30  C   UNL     1      16.179   1.071  53.583  1.00  0.00    -0.000 C 
BRANCH  30  31
ATOM     31  C   UNL     1      15.704   1.256  55.040  1.00  0.00    -0.003 C 
ATOM     32  C   UNL     1      16.758   1.937  55.915  1.00  0.00     0.004 C 
ENDBRANCH  30  31
ENDBRANCH  29  30
ENDBRANCH  28  29
ENDBRANCH  27  28
ENDBRANCH  26  27
ENDBRANCH  25  26
ENDBRANCH  24  25
ENDBRANCH  23  24
ENDBRANCH  22  23
ENDBRANCH  21  22
ENDBRANCH  20  21
ENDBRANCH  19  20
ENDBRANCH  18  19
ENDBRANCH   1  18
TORSDOF 28
ENDMDL
MODEL 6
REMARK VINA RESULT:    -5.212      5.050     11.871
REMARK INTER + INTRA:         -15.867
REMARK INTER:                 -13.594
REMARK INTRA:                  -2.273
REMARK UNBOUND:                -2.124
REMARK SMILES CCCCCCCCCCCCCCCCCCCCCCCCCCCCCC(=O)[O-]
REMARK SMILES IDX 16 1 17 2 18 3 19 4 20 5 21 6 22 7 23 8 24 9 25 10 26 11
REMARK SMILES IDX 27 12 28 13 29 14 30 15 31 16 32 17 15 18 14 19 13 20 12 21
REMARK SMILES IDX 11 22 10 23 9 24 8 25 7 26 6 27 5 28 4 29 3 30 2 31 1 32
REMARK H PARENT
REMARK Flexibility Score: inf
ROOT
ATOM      1  C   UNL     1      25.390   2.223  62.030  1.00  0.00     0.000 C 
ENDROOT
BRANCH   1   2
ATOM      2  C   UNL     1      24.407   3.394  61.915  1.00  0.00     0.000 C 
BRANCH   2   3
ATOM      3  C   UNL     1      22.982   2.886  61.648  1.00  0.00     0.000 C 
BRANCH   3   4
ATOM      4  C   UNL     1      22.262   2.407  62.922  1.00  0.00     0.000 C 
BRANCH   4   5
ATOM      5  C   UNL     1      21.972   0.894  62.983  1.00  0.00     0.000 C 
BRANCH   5   6
ATOM      6  C   UNL     1      20.834   0.401  62.070  1.00  0.00     0.000 C 
BRANCH   6   7
ATOM      7  C   UNL     1      21.260  -0.761  61.160  1.00  0.00     0.000 C 
BRANCH   7   8
ATOM      8  C   UNL     1      22.555  -1.438  61.640  1.00  0.00     0.000 C 
BRANCH   8   9
ATOM      9  C   UNL     1      22.466  -2.972  61.604  1.00  0.00     0.000 C 
BRANCH   9  10
ATOM     10  C   UNL     1      22.386  -3.528  60.172  1.00  0.00     0.000 C 
BRANCH  10  11
ATOM     11  C   UNL     1      22.769  -2.493  59.091  1.00  0.00     0.000 C 
BRANCH  11  12
ATOM     12  C   UNL     1      23.998  -2.932  58.276  1.00  0.00     0.000 C 
BRANCH  12  13
ATOM     13  C   UNL     1      25.140  -3.471  59.156  1.00  0.00     0.006 C 
BRANCH  13  14
ATOM     14  C   UNL     1      26.143  -2.404  59.623  1.00  0.00     0.053 C 
BRANCH  14  15
ATOM     15  C   UNL     1      26.015  -2.115  61.088  1.00  0.00     0.041 C 
ATOM     16  O   UNL     1      25.996  -0.927  61.500  1.00  0.00    -0.550 OA
ATOM     17  O   UNL     1      25.944  -3.159  62.001  1.00  0.00    -0.550 OA
ENDBRANCH  14  15
ENDBRANCH  13  14
ENDBRANCH  12  13
ENDBRANCH  11  12
ENDBRANCH  10  11
ENDBRANCH   9  10
ENDBRANCH   8   9
ENDBRANCH   7   8
ENDBRANCH   6   7
ENDBRANCH   5   6
ENDBRANCH   4   5
ENDBRANCH   3   4
ENDBRANCH   2   3
ENDBRANCH   1   2
BRANCH   1  18
ATOM     18  C   UNL     1      25.913   2.076  63.468  1.00  0.00     0.000 C 
BRANCH  18  19
ATOM     19  C   UNL     1      25.621   3.315  64.334  1.00  0.00     0.000 C 
BRANCH  19  20
ATOM     20  C   UNL     1      25.203   3.006  65.786  1.00  0.00     0.000 C 
BRANCH  20  21
ATOM     21  C   UNL     1      23.690   3.084  66.061  1.00  0.00     0.000 C 
BRANCH  21  22
ATOM     22  C   UNL     1      23.246   2.605  67.458  1.00  0.00     0.000 C 
BRANCH  22  23
ATOM     23  C   UNL     1      23.501   3.626  68.588  1.00  0.00     0.000 C 
BRANCH  23  24
ATOM     24  C   UNL     1      23.383   3.006  69.989  1.00  0.00    -0.000 C 
BRANCH  24  25
ATOM     25  C   UNL     1      21.997   2.373  70.207  1.00  0.00    -0.000 C 
BRANCH  25  26
ATOM     26  C   UNL     1      21.743   1.974  71.670  1.00  0.00    -0.000 C 
BRANCH  26  27
ATOM     27  C   UNL     1      20.816   0.758  71.876  1.00  0.00    -0.000 C 
BRANCH  27  28
ATOM     28  C   UNL     1      19.558   0.761  70.985  1.00  0.00    -0.000 C 
BRANCH  28  29
ATOM     29  C   UNL     1      18.324   0.162  71.682  1.00  0.00    -0.000 C 
BRANCH  29  30
ATOM     30  C   UNL     1      17.470  -0.708  70.744  1.00  0.00    -0.000 C 
BRANCH  30  31
ATOM     31  C   UNL     1      18.031  -0.813  69.309  1.00  0.00    -0.003 C 
ATOM     32  C   UNL     1      17.631  -2.119  68.621  1.00  0.00     0.004 C 
ENDBRANCH  30  31
ENDBRANCH  29  30
ENDBRANCH  28  29
ENDBRANCH  27  28
ENDBRANCH  26  27
ENDBRANCH  25  26
ENDBRANCH  24  25
ENDBRANCH  23  24
ENDBRANCH  22  23
ENDBRANCH  21  22
ENDBRANCH  20  21
ENDBRANCH  19  20
ENDBRANCH  18  19
ENDBRANCH   1  18
TORSDOF 28
ENDMDL
MODEL 7
REMARK VINA RESULT:    -5.194      5.272      9.423
REMARK INTER + INTRA:         -15.820
REMARK INTER:                 -12.945
REMARK INTRA:                  -2.876
REMARK UNBOUND:                -2.124
REMARK SMILES CCCCCCCCCCCCCCCCCCCCCCCCCCCCCC(=O)[O-]
REMARK SMILES IDX 16 1 17 2 18 3 19 4 20 5 21 6 22 7 23 8 24 9 25 10 26 11
REMARK SMILES IDX 27 12 28 13 29 14 30 15 31 16 32 17 15 18 14 19 13 20 12 21
REMARK SMILES IDX 11 22 10 23 9 24 8 25 7 26 6 27 5 28 4 29 3 30 2 31 1 32
REMARK H PARENT
REMARK Flexibility Score: inf
ROOT
ATOM      1  C   UNL     1      25.968   2.612  63.741  1.00  0.00     0.000 C 
ENDROOT
BRANCH   1   2
ATOM      2  C   UNL     1      25.116   3.567  64.586  1.00  0.00     0.000 C 
BRANCH   2   3
ATOM      3  C   UNL     1      24.806   2.951  65.959  1.00  0.00     0.000 C 
BRANCH   3   4
ATOM      4  C   UNL     1      23.305   2.951  66.297  1.00  0.00     0.000 C 
BRANCH   4   5
ATOM      5  C   UNL     1      22.960   2.624  67.764  1.00  0.00     0.000 C 
BRANCH   5   6
ATOM      6  C   UNL     1      23.610   3.542  68.816  1.00  0.00     0.000 C 
BRANCH   6   7
ATOM      7  C   UNL     1      23.269   3.132  70.257  1.00  0.00     0.000 C 
BRANCH   7   8
ATOM      8  C   UNL     1      22.393   1.870  70.317  1.00  0.00     0.000 C 
BRANCH   8   9
ATOM      9  C   UNL     1      21.292   1.967  71.386  1.00  0.00     0.000 C 
BRANCH   9  10
ATOM     10  C   UNL     1      20.498   0.659  71.538  1.00  0.00     0.000 C 
BRANCH  10  11
ATOM     11  C   UNL     1      19.130   0.684  70.820  1.00  0.00     0.000 C 
BRANCH  11  12
ATOM     12  C   UNL     1      18.007   0.090  71.688  1.00  0.00     0.000 C 
BRANCH  12  13
ATOM     13  C   UNL     1      17.579  -1.317  71.234  1.00  0.00     0.006 C 
BRANCH  13  14
ATOM     14  C   UNL     1      16.298  -1.351  70.385  1.00  0.00     0.053 C 
BRANCH  14  15
ATOM     15  C   UNL     1      16.580  -1.690  68.953  1.00  0.00     0.041 C 
ATOM     16  O   UNL     1      17.715  -1.463  68.460  1.00  0.00    -0.550 OA
ATOM     17  O   UNL     1      15.581  -2.232  68.155  1.00  0.00    -0.550 OA
ENDBRANCH  14  15
ENDBRANCH  13  14
ENDBRANCH  12  13
ENDBRANCH  11  12
ENDBRANCH  10  11
ENDBRANCH   9  10
ENDBRANCH   8   9
ENDBRANCH   7   8
ENDBRANCH   6   7
ENDBRANCH   5   6
ENDBRANCH   4   5
ENDBRANCH   3   4
ENDBRANCH   2   3
ENDBRANCH   1   2
BRANCH   1  18
ATOM     18  C   UNL     1      25.394   2.464  62.323  1.00  0.00     0.000 C 
BRANCH  18  19
ATOM     19  C   UNL     1      24.205   3.407  62.064  1.00  0.00     0.000 C 
BRANCH  19  20
ATOM     20  C   UNL     1      22.888   2.699  61.684  1.00  0.00     0.000 C 
BRANCH  20  21
ATOM     21  C   UNL     1      22.063   2.174  62.873  1.00  0.00     0.000 C 
BRANCH  21  22
ATOM     22  C   UNL     1      21.569   0.719  62.743  1.00  0.00     0.000 C 
BRANCH  22  23
ATOM     23  C   UNL     1      22.450  -0.171  61.839  1.00  0.00     0.000 C 
BRANCH  23  24
ATOM     24  C   UNL     1      22.017  -1.645  61.849  1.00  0.00    -0.000 C 
BRANCH  24  25
ATOM     25  C   UNL     1      21.363  -2.046  60.516  1.00  0.00    -0.000 C 
BRANCH  25  26
ATOM     26  C   UNL     1      22.150  -3.131  59.763  1.00  0.00    -0.000 C 
BRANCH  26  27
ATOM     27  C   UNL     1      22.856  -2.665  58.473  1.00  0.00    -0.000 C 
BRANCH  27  28
ATOM     28  C   UNL     1      24.307  -3.168  58.327  1.00  0.00    -0.000 C 
BRANCH  28  29
ATOM     29  C   UNL     1      25.035  -3.307  59.675  1.00  0.00    -0.000 C 
BRANCH  29  30
ATOM     30  C   UNL     1      25.705  -2.000  60.131  1.00  0.00    -0.000 C 
BRANCH  30  31
ATOM     31  C   UNL     1      25.814  -1.857  61.664  1.00  0.00    -0.003 C 
ATOM     32  C   UNL     1      25.211  -3.051  62.406  1.00  0.00     0.004 C 
ENDBRANCH  30  31
ENDBRANCH  29  30
ENDBRANCH  28  29
ENDBRANCH  27  28
ENDBRANCH  26  27
ENDBRANCH  25  26
ENDBRANCH  24  25
ENDBRANCH  23  24
ENDBRANCH  22  23
ENDBRANCH  21  22
ENDBRANCH  20  21
ENDBRANCH  19  20
ENDBRANCH  18  19
ENDBRANCH   1  18
TORSDOF 28
ENDMDL
MODEL 8
REMARK VINA RESULT:    -5.140      1.560      3.504
REMARK INTER + INTRA:         -15.677
REMARK INTER:                 -13.202
REMARK INTRA:                  -2.476
REMARK UNBOUND:                -2.124
REMARK SMILES CCCCCCCCCCCCCCCCCCCCCCCCCCCCCC(=O)[O-]
REMARK SMILES IDX 16 1 17 2 18 3 19 4 20 5 21 6 22 7 23 8 24 9 25 10 26 11
REMARK SMILES IDX 27 12 28 13 29 14 30 15 31 16 32 17 15 18 14 19 13 20 12 21
REMARK SMILES IDX 11 22 10 23 9 24 8 25 7 26 6 27 5 28 4 29 3 30 2 31 1 32
REMARK H PARENT
REMARK Flexibility Score: inf
ROOT
ATOM      1  C   UNL     1      25.503  -3.750  61.225  1.00  0.00     0.000 C 
ENDROOT
BRANCH   1   2
ATOM      2  C   UNL     1      24.967  -3.298  62.589  1.00  0.00     0.000 C 
BRANCH   2   3
ATOM      3  C   UNL     1      23.460  -3.571  62.701  1.00  0.00     0.000 C 
BRANCH   3   4
ATOM      4  C   UNL     1      22.622  -2.759  61.698  1.00  0.00     0.000 C 
BRANCH   4   5
ATOM      5  C   UNL     1      22.587  -1.238  61.948  1.00  0.00     0.000 C 
BRANCH   5   6
ATOM      6  C   UNL     1      21.281  -0.530  61.542  1.00  0.00     0.000 C 
BRANCH   6   7
ATOM      7  C   UNL     1      21.217   0.927  62.025  1.00  0.00     0.000 C 
BRANCH   7   8
ATOM      8  C   UNL     1      21.700   1.086  63.476  1.00  0.00     0.000 C 
BRANCH   8   9
ATOM      9  C   UNL     1      21.705   2.552  63.938  1.00  0.00     0.000 C 
BRANCH   9  10
ATOM     10  C   UNL     1      22.505   2.761  65.236  1.00  0.00     0.000 C 
BRANCH  10  11
ATOM     11  C   UNL     1      23.871   3.446  65.012  1.00  0.00     0.000 C 
BRANCH  11  12
ATOM     12  C   UNL     1      23.933   4.193  63.668  1.00  0.00     0.000 C 
BRANCH  12  13
ATOM     13  C   UNL     1      25.150   3.793  62.815  1.00  0.00     0.006 C 
BRANCH  13  14
ATOM     14  C   UNL     1      25.005   2.446  62.090  1.00  0.00     0.053 C 
BRANCH  14  15
ATOM     15  C   UNL     1      25.775   1.355  62.769  1.00  0.00     0.041 C 
ATOM     16  O   UNL     1      26.292   1.552  63.899  1.00  0.00    -0.550 OA
ATOM     17  O   UNL     1      25.945   0.127  62.143  1.00  0.00    -0.550 OA
ENDBRANCH  14  15
ENDBRANCH  13  14
ENDBRANCH  12  13
ENDBRANCH  11  12
ENDBRANCH  10  11
ENDBRANCH   9  10
ENDBRANCH   8   9
ENDBRANCH   7   8
ENDBRANCH   6   7
ENDBRANCH   5   6
ENDBRANCH   4   5
ENDBRANCH   3   4
ENDBRANCH   2   3
ENDBRANCH   1   2
BRANCH   1  18
ATOM     18  C   UNL     1      26.155  -2.580  60.470  1.00  0.00     0.000 C 
BRANCH  18  19
ATOM     19  C   UNL     1      25.593  -2.406  59.047  1.00  0.00     0.000 C 
BRANCH  19  20
ATOM     20  C   UNL     1      24.466  -3.390  58.671  1.00  0.00     0.000 C 
BRANCH  20  21
ATOM     21  C   UNL     1      23.129  -2.733  58.279  1.00  0.00     0.000 C 
BRANCH  21  22
ATOM     22  C   UNL     1      22.918  -2.515  56.768  1.00  0.00     0.000 C 
BRANCH  22  23
ATOM     23  C   UNL     1      23.647  -3.539  55.871  1.00  0.00     0.000 C 
BRANCH  23  24
ATOM     24  C   UNL     1      23.270  -3.408  54.387  1.00  0.00    -0.000 C 
BRANCH  24  25
ATOM     25  C   UNL     1      22.537  -2.085  54.110  1.00  0.00    -0.000 C 
BRANCH  25  26
ATOM     26  C   UNL     1      21.756  -2.097  52.786  1.00  0.00    -0.000 C 
BRANCH  26  27
ATOM     27  C   UNL     1      20.883  -0.854  52.517  1.00  0.00    -0.000 C 
BRANCH  27  28
ATOM     28  C   UNL     1      19.579  -0.804  53.341  1.00  0.00    -0.000 C 
BRANCH  28  29
ATOM     29  C   UNL     1      18.407  -0.166  52.576  1.00  0.00    -0.000 C 
BRANCH  29  30
ATOM     30  C   UNL     1      17.396   0.529  53.502  1.00  0.00    -0.000 C 
BRANCH  30  31
ATOM     31  C   UNL     1      16.919   1.904  52.985  1.00  0.00    -0.003 C 
ATOM     32  C   UNL     1      16.107   2.671  54.030  1.00  0.00     0.004 C 
ENDBRANCH  30  31
ENDBRANCH  29  30
ENDBRANCH  28  29
ENDBRANCH  27  28
ENDBRANCH  26  27
ENDBRANCH  25  26
ENDBRANCH  24  25
ENDBRANCH  23  24
ENDBRANCH  22  23
ENDBRANCH  21  22
ENDBRANCH  20  21
ENDBRANCH  19  20
ENDBRANCH  18  19
ENDBRANCH   1  18
TORSDOF 28
ENDMDL
MODEL 9
REMARK VINA RESULT:    -5.104      2.478     10.470
REMARK INTER + INTRA:         -15.582
REMARK INTER:                 -13.146
REMARK INTRA:                  -2.436
REMARK UNBOUND:                -2.124
REMARK SMILES CCCCCCCCCCCCCCCCCCCCCCCCCCCCCC(=O)[O-]
REMARK SMILES IDX 16 1 17 2 18 3 19 4 20 5 21 6 22 7 23 8 24 9 25 10 26 11
REMARK SMILES IDX 27 12 28 13 29 14 30 15 31 16 32 17 15 18 14 19 13 20 12 21
REMARK SMILES IDX 11 22 10 23 9 24 8 25 7 26 6 27 5 28 4 29 3 30 2 31 1 32
REMARK H PARENT
REMARK Flexibility Score: inf
ROOT
ATOM      1  C   UNL     1      24.762  -3.006  58.434  1.00  0.00     0.000 C 
ENDROOT
BRANCH   1   2
ATOM      2  C   UNL     1      23.249  -2.821  58.270  1.00  0.00     0.000 C 
BRANCH   2   3
ATOM      3  C   UNL     1      22.890  -2.527  56.806  1.00  0.00     0.000 C 
BRANCH   3   4
ATOM      4  C   UNL     1      23.607  -3.455  55.809  1.00  0.00     0.000 C 
BRANCH   4   5
ATOM      5  C   UNL     1      23.271  -3.212  54.324  1.00  0.00     0.000 C 
BRANCH   5   6
ATOM      6  C   UNL     1      22.473  -1.929  54.028  1.00  0.00     0.000 C 
BRANCH   6   7
ATOM      7  C   UNL     1      21.699  -2.000  52.703  1.00  0.00     0.000 C 
BRANCH   7   8
ATOM      8  C   UNL     1      20.703  -0.840  52.541  1.00  0.00     0.000 C 
BRANCH   8   9
ATOM      9  C   UNL     1      19.506  -0.952  53.500  1.00  0.00     0.000 C 
BRANCH   9  10
ATOM     10  C   UNL     1      18.554   0.252  53.401  1.00  0.00     0.000 C 
BRANCH  10  11
ATOM     11  C   UNL     1      17.346   0.004  52.470  1.00  0.00     0.000 C 
BRANCH  11  12
ATOM     12  C   UNL     1      16.697   1.317  51.999  1.00  0.00     0.000 C 
BRANCH  12  13
ATOM     13  C   UNL     1      16.394   2.286  53.156  1.00  0.00     0.006 C 
BRANCH  13  14
ATOM     14  C   UNL     1      15.214   1.867  54.046  1.00  0.00     0.053 C 
BRANCH  14  15
ATOM     15  C   UNL     1      15.618   1.712  55.481  1.00  0.00     0.041 C 
ATOM     16  O   UNL     1      14.786   1.306  56.333  1.00  0.00    -0.550 OA
ATOM     17  O   UNL     1      16.906   2.041  55.882  1.00  0.00    -0.550 OA
ENDBRANCH  14  15
ENDBRANCH  13  14
ENDBRANCH  12  13
ENDBRANCH  11  12
ENDBRANCH  10  11
ENDBRANCH   9  10
ENDBRANCH   8   9
ENDBRANCH   7   8
ENDBRANCH   6   7
ENDBRANCH   5   6
ENDBRANCH   4   5
ENDBRANCH   3   4
ENDBRANCH   2   3
ENDBRANCH   1   2
BRANCH   1  18
ATOM     18  C   UNL     1      25.110  -3.502  59.847  1.00  0.00     0.000 C 
BRANCH  18  19
ATOM     19  C   UNL     1      23.906  -4.133  60.568  1.00  0.00     0.000 C 
BRANCH  19  20
ATOM     20  C   UNL     1      23.801  -3.798  62.069  1.00  0.00     0.000 C 
BRANCH  20  21
ATOM     21  C   UNL     1      23.402  -2.345  62.388  1.00  0.00     0.000 C 
BRANCH  21  22
ATOM     22  C   UNL     1      22.188  -1.806  61.603  1.00  0.00     0.000 C 
BRANCH  22  23
ATOM     23  C   UNL     1      21.321  -0.800  62.390  1.00  0.00     0.000 C 
BRANCH  23  24
ATOM     24  C   UNL     1      21.551   0.656  61.955  1.00  0.00    -0.000 C 
BRANCH  24  25
ATOM     25  C   UNL     1      21.892   1.553  63.157  1.00  0.00    -0.000 C 
BRANCH  25  26
ATOM     26  C   UNL     1      22.468   2.917  62.744  1.00  0.00    -0.000 C 
BRANCH  26  27
ATOM     27  C   UNL     1      22.914   3.830  63.905  1.00  0.00    -0.000 C 
BRANCH  27  28
ATOM     28  C   UNL     1      24.443   3.921  64.089  1.00  0.00    -0.000 C 
BRANCH  28  29
ATOM     29  C   UNL     1      24.985   2.928  65.131  1.00  0.00    -0.000 C 
BRANCH  29  30
ATOM     30  C   UNL     1      26.206   2.140  64.628  1.00  0.00    -0.000 C 
BRANCH  30  31
ATOM     31  C   UNL     1      26.259   1.986  63.092  1.00  0.00    -0.003 C 
ATOM     32  C   UNL     1      25.471   0.772  62.600  1.00  0.00     0.004 C 
ENDBRANCH  30  31
ENDBRANCH  29  30
ENDBRANCH  28  29
ENDBRANCH  27  28
ENDBRANCH  26  27
ENDBRANCH  25  26
ENDBRANCH  24  25
ENDBRANCH  23  24
ENDBRANCH  22  23
ENDBRANCH  21  22
ENDBRANCH  20  21
ENDBRANCH  19  20
ENDBRANCH  18  19
ENDBRANCH   1  18
TORSDOF 28
ENDMDL
