MODEL 1
REMARK VINA RESULT:    -4.361      0.000      0.000
REMARK INTER + INTRA:         -10.916
REMARK INTER:                  -7.165
REMARK INTRA:                  -3.751
REMARK UNBOUND:                -3.751
REMARK SMILES C[C@@H]1O[C@H](OC[C@H]2O[C@H](Oc3c(-c4ccc(O)c(O)c4)oc4cc(O)cc(O)c4c3=O)[C@H](O)[C@H](O)[C@H]2O)[C@H](O)[C@H](O)[C@@H]1O
REMARK SMILES IDX 7 1 36 2 34 3 32 4 9 5 8 6 6 7 5 8 4 9 1 10 2 11 42 12 3 13
REMARK SMILES IDX 40 14 38 15 43 16 41 18 39 20 37 22 35 24 10 26 11 27 12 28
REMARK SMILES IDX 30 29 21 30 29 31 31 32 22 33 27 34 23 35 26 36 24 37 13 38
REMARK SMILES IDX 20 39 14 40 18 41 15 42 16 43 19 44 17 46 28 48 25 50 33 52
REMARK H PARENT 43 17 41 19 39 21 37 23 35 25 19 45 17 47 28 49 25 51 33 53
REMARK Flexibility Score: inf
ROOT
ATOM      1  C   UNL     1      45.700   8.094  26.156  1.00  0.00     0.180 C 
ATOM      2  C   UNL     1      46.125   9.176  27.191  1.00  0.00     0.177 C 
ATOM      3  C   UNL     1      44.977  10.177  27.399  1.00  0.00     0.180 C 
ATOM      4  C   UNL     1      43.662   9.422  27.714  1.00  0.00     0.214 C 
ATOM      5  C   UNL     1      43.408   8.319  26.672  1.00  0.00     0.339 C 
ATOM      6  O   UNL     1      44.515   7.432  26.574  1.00  0.00    -0.332 OA
ENDROOT
BRANCH   1   7
ATOM      7  C   UNL     1      46.791   7.038  25.955  1.00  0.00     0.198 C 
BRANCH   7   8
ATOM      8  O   UNL     1      47.922   7.605  25.325  1.00  0.00    -0.347 OA
BRANCH   8   9
ATOM      9  C   UNL     1      49.026   6.706  25.354  1.00  0.00     0.281 C 
ATOM     10  C   UNL     1      49.261   3.294  24.016  1.00  0.00     0.041 C 
ATOM     11  C   UNL     1      49.740   4.714  24.338  1.00  0.00     0.150 C 
ATOM     12  C   UNL     1      50.520   5.380  23.165  1.00  0.00     0.174 C 
ATOM     13  O   UNL     1      48.624   5.510  24.688  1.00  0.00    -0.344 OA
ATOM     14  C   UNL     1      50.408   6.927  23.230  1.00  0.00     0.179 C 
ATOM     15  C   UNL     1      50.269   7.381  24.695  1.00  0.00     0.202 C 
BRANCH  12  16
ATOM     16  O   UNL     1      50.066   4.934  21.909  1.00  0.00    -0.388 OA
ATOM     17  H   UNL     1      49.146   4.580  22.038  1.00  0.00     0.211 HD
ENDBRANCH  12  16
BRANCH  14  18
ATOM     18  O   UNL     1      49.301   7.366  22.483  1.00  0.00    -0.387 OA
ATOM     19  H   UNL     1      48.522   6.838  22.787  1.00  0.00     0.211 HD
ENDBRANCH  14  18
BRANCH  15  20
ATOM     20  O   UNL     1      50.203   8.780  24.772  1.00  0.00    -0.385 OA
ATOM     21  H   UNL     1      50.496   9.039  25.687  1.00  0.00     0.211 HD
ENDBRANCH  15  20
ENDBRANCH   8   9
ENDBRANCH   7   8
ENDBRANCH   1   7
BRANCH   2  22
ATOM     22  O   UNL     1      46.520   8.622  28.429  1.00  0.00    -0.387 OA
ATOM     23  H   UNL     1      46.970   9.332  28.952  1.00  0.00     0.211 HD
ENDBRANCH   2  22
BRANCH   3  24
ATOM     24  O   UNL     1      44.846  10.970  26.243  1.00  0.00    -0.387 OA
ATOM     25  H   UNL     1      44.084  11.595  26.401  1.00  0.00     0.211 HD
ENDBRANCH   3  24
BRANCH   5  26
ATOM     26  O   UNL     1      43.082   8.896  25.403  1.00  0.00    -0.454 OA
BRANCH  26  27
ATOM     27  C   UNL     1      41.959   8.575  24.621  1.00  0.00     0.214 A 
ATOM     28  C   UNL     1      42.132   7.659  23.571  1.00  0.00     0.180 A 
ATOM     29  C   UNL     1      40.671   9.094  24.857  1.00  0.00     0.239 A 
ATOM     30  O   UNL     1      41.105   7.305  22.809  1.00  0.00    -0.452 OA
ATOM     31  C   UNL     1      39.606   8.708  24.009  1.00  0.00     0.111 A 
ATOM     32  O   UNL     1      40.472   9.879  25.821  1.00  0.00    -0.285 OA
ATOM     33  C   UNL     1      39.883   7.785  22.974  1.00  0.00     0.146 A 
ATOM     34  C   UNL     1      38.288   9.198  24.153  1.00  0.00     0.134 A 
ATOM     35  C   UNL     1      38.874   7.381  22.093  1.00  0.00     0.094 A 
ATOM     36  C   UNL     1      37.284   8.772  23.264  1.00  0.00     0.093 A 
ATOM     37  C   UNL     1      37.574   7.882  22.231  1.00  0.00     0.123 A 
BRANCH  28  38
ATOM     38  C   UNL     1      43.455   7.107  23.260  1.00  0.00     0.025 A 
ATOM     39  C   UNL     1      44.396   7.892  22.575  1.00  0.00     0.062 A 
ATOM     40  C   UNL     1      43.760   5.780  23.593  1.00  0.00     0.016 A 
ATOM     41  C   UNL     1      45.637   7.353  22.212  1.00  0.00     0.158 A 
ATOM     42  C   UNL     1      45.002   5.238  23.249  1.00  0.00     0.051 A 
ATOM     43  C   UNL     1      45.939   6.007  22.540  1.00  0.00     0.157 A 
BRANCH  41  44
ATOM     44  O   UNL     1      46.536   8.180  21.534  1.00  0.00    -0.504 OA
ATOM     45  H   UNL     1      46.801   9.095  21.864  1.00  0.00     0.293 HD
ENDBRANCH  41  44
BRANCH  43  46
ATOM     46  O   UNL     1      47.126   5.389  22.144  1.00  0.00    -0.504 OA
ATOM     47  H   UNL     1      48.024   5.601  22.552  1.00  0.00     0.293 HD
ENDBRANCH  43  46
ENDBRANCH  28  38
BRANCH  34  48
ATOM     48  O   UNL     1      37.966  10.108  25.167  1.00  0.00    -0.507 OA
ATOM     49  H   UNL     1      37.016  10.211  25.506  1.00  0.00     0.293 HD
ENDBRANCH  34  48
BRANCH  37  50
ATOM     50  O   UNL     1      36.568   7.500  21.338  1.00  0.00    -0.508 OA
ATOM     51  H   UNL     1      36.773   7.254  20.378  1.00  0.00     0.293 HD
ENDBRANCH  37  50
ENDBRANCH  26  27
ENDBRANCH   5  26
BRANCH   4  52
ATOM     52  O   UNL     1      42.569  10.300  27.735  1.00  0.00    -0.384 OA
ATOM     53  H   UNL     1      42.647  10.833  28.574  1.00  0.00     0.211 HD
ENDBRANCH   4  52
TORSDOF 16
ENDMDL
MODEL 2
REMARK VINA RESULT:    -4.160     10.833     13.073
REMARK INTER + INTRA:         -10.586
REMARK INTER:                  -6.885
REMARK INTRA:                  -3.702
REMARK UNBOUND:                -3.751
REMARK SMILES C[C@@H]1O[C@H](OC[C@H]2O[C@H](Oc3c(-c4ccc(O)c(O)c4)oc4cc(O)cc(O)c4c3=O)[C@H](O)[C@H](O)[C@H]2O)[C@H](O)[C@H](O)[C@@H]1O
REMARK SMILES IDX 7 1 36 2 34 3 32 4 9 5 8 6 6 7 5 8 4 9 1 10 2 11 42 12 3 13
REMARK SMILES IDX 40 14 38 15 43 16 41 18 39 20 37 22 35 24 10 26 11 27 12 28
REMARK SMILES IDX 30 29 21 30 29 31 31 32 22 33 27 34 23 35 26 36 24 37 13 38
REMARK SMILES IDX 20 39 14 40 18 41 15 42 16 43 19 44 17 46 28 48 25 50 33 52
REMARK H PARENT 43 17 41 19 39 21 37 23 35 25 19 45 17 47 28 49 25 51 33 53
REMARK Flexibility Score: inf
ROOT
ATOM      1  C   UNL     1      39.510  12.299  13.185  1.00  0.00     0.180 C 
ATOM      2  C   UNL     1      39.347  11.080  12.231  1.00  0.00     0.177 C 
ATOM      3  C   UNL     1      38.129  10.245  12.658  1.00  0.00     0.180 C 
ATOM      4  C   UNL     1      36.885  11.154  12.808  1.00  0.00     0.214 C 
ATOM      5  C   UNL     1      37.207  12.369  13.695  1.00  0.00     0.339 C 
ATOM      6  O   UNL     1      38.330  13.089  13.202  1.00  0.00    -0.332 OA
ENDROOT
BRANCH   1   7
ATOM      7  C   UNL     1      40.679  13.197  12.768  1.00  0.00     0.198 C 
BRANCH   7   8
ATOM      8  O   UNL     1      41.790  12.416  12.375  1.00  0.00    -0.347 OA
BRANCH   8   9
ATOM      9  C   UNL     1      42.823  13.235  11.837  1.00  0.00     0.281 C 
ATOM     10  C   UNL     1      43.521  16.785  12.463  1.00  0.00     0.041 C 
ATOM     11  C   UNL     1      43.852  15.308  12.227  1.00  0.00     0.150 C 
ATOM     12  C   UNL     1      44.981  14.775  13.160  1.00  0.00     0.174 C 
ATOM     13  O   UNL     1      42.679  14.537  12.401  1.00  0.00    -0.344 OA
ATOM     14  C   UNL     1      44.845  13.245  13.380  1.00  0.00     0.179 C 
ATOM     15  C   UNL     1      44.212  12.591  12.138  1.00  0.00     0.202 C 
BRANCH  12  16
ATOM     16  O   UNL     1      44.985  15.426  14.409  1.00  0.00    -0.388 OA
ATOM     17  H   UNL     1      45.894  15.317  14.794  1.00  0.00     0.211 HD
ENDBRANCH  12  16
BRANCH  14  18
ATOM     18  O   UNL     1      44.056  12.985  14.515  1.00  0.00    -0.387 OA
ATOM     19  H   UNL     1      43.149  13.329  14.318  1.00  0.00     0.211 HD
ENDBRANCH  14  18
BRANCH  15  20
ATOM     20  O   UNL     1      44.115  11.201  12.309  1.00  0.00    -0.385 OA
ATOM     21  H   UNL     1      44.898  10.793  11.849  1.00  0.00     0.211 HD
ENDBRANCH  15  20
ENDBRANCH   8   9
ENDBRANCH   7   8
ENDBRANCH   1   7
BRANCH   2  22
ATOM     22  O   UNL     1      39.229  11.459  10.875  1.00  0.00    -0.387 OA
ATOM     23  H   UNL     1      39.848  10.898  10.346  1.00  0.00     0.211 HD
ENDBRANCH   2  22
BRANCH   3  24
ATOM     24  O   UNL     1      38.427   9.584  13.864  1.00  0.00    -0.387 OA
ATOM     25  H   UNL     1      39.197  10.063  14.279  1.00  0.00     0.211 HD
ENDBRANCH   3  24
BRANCH   5  26
ATOM     26  O   UNL     1      37.399  11.960  15.053  1.00  0.00    -0.454 OA
BRANCH  26  27
ATOM     27  C   UNL     1      36.744  12.502  16.173  1.00  0.00     0.214 A 
ATOM     28  C   UNL     1      37.388  13.536  16.871  1.00  0.00     0.180 A 
ATOM     29  C   UNL     1      35.469  12.089  16.606  1.00  0.00     0.239 A 
ATOM     30  O   UNL     1      36.812  14.099  17.925  1.00  0.00    -0.452 OA
ATOM     31  C   UNL     1      34.898  12.699  17.748  1.00  0.00     0.111 A 
ATOM     32  O   UNL     1      34.844  11.199  15.973  1.00  0.00    -0.285 OA
ATOM     33  C   UNL     1      35.628  13.727  18.386  1.00  0.00     0.146 A 
ATOM     34  C   UNL     1      33.637  12.330  18.270  1.00  0.00     0.134 A 
ATOM     35  C   UNL     1      35.123  14.354  19.531  1.00  0.00     0.094 A 
ATOM     36  C   UNL     1      33.140  12.979  19.415  1.00  0.00     0.093 A 
ATOM     37  C   UNL     1      33.881  13.974  20.053  1.00  0.00     0.123 A 
BRANCH  28  38
ATOM     38  C   UNL     1      38.728  13.990  16.483  1.00  0.00     0.025 A 
ATOM     39  C   UNL     1      39.852  13.221  16.827  1.00  0.00     0.062 A 
ATOM     40  C   UNL     1      38.894  15.214  15.822  1.00  0.00     0.016 A 
ATOM     41  C   UNL     1      41.142  13.677  16.523  1.00  0.00     0.158 A 
ATOM     42  C   UNL     1      40.175  15.671  15.501  1.00  0.00     0.051 A 
ATOM     43  C   UNL     1      41.307  14.922  15.865  1.00  0.00     0.157 A 
BRANCH  41  44
ATOM     44  O   UNL     1      42.223  12.871  16.886  1.00  0.00    -0.504 OA
ATOM     45  H   UNL     1      42.805  13.057  17.687  1.00  0.00     0.293 HD
ENDBRANCH  41  44
BRANCH  43  46
ATOM     46  O   UNL     1      42.563  15.467  15.599  1.00  0.00    -0.504 OA
ATOM     47  H   UNL     1      43.282  15.572  16.301  1.00  0.00     0.293 HD
ENDBRANCH  43  46
ENDBRANCH  28  38
BRANCH  34  48
ATOM     48  O   UNL     1      32.875  11.323  17.668  1.00  0.00    -0.507 OA
ATOM     49  H   UNL     1      32.389  10.623  18.217  1.00  0.00     0.293 HD
ENDBRANCH  34  48
BRANCH  37  50
ATOM     50  O   UNL     1      33.382  14.579  21.210  1.00  0.00    -0.508 OA
ATOM     51  H   UNL     1      32.645  14.156  21.758  1.00  0.00     0.293 HD
ENDBRANCH  37  50
ENDBRANCH  26  27
ENDBRANCH   5  26
BRANCH   4  52
ATOM     52  O   UNL     1      35.808  10.448  13.362  1.00  0.00    -0.384 OA
ATOM     53  H   UNL     1      35.074  11.108  13.500  1.00  0.00     0.211 HD
ENDBRANCH   4  52
TORSDOF 16
ENDMDL
MODEL 3
REMARK VINA RESULT:    -4.109      1.524      2.951
REMARK INTER + INTRA:         -10.502
REMARK INTER:                  -6.393
REMARK INTRA:                  -4.108
REMARK UNBOUND:                -3.751
REMARK SMILES C[C@@H]1O[C@H](OC[C@H]2O[C@H](Oc3c(-c4ccc(O)c(O)c4)oc4cc(O)cc(O)c4c3=O)[C@H](O)[C@H](O)[C@H]2O)[C@H](O)[C@H](O)[C@@H]1O
REMARK SMILES IDX 7 1 36 2 34 3 32 4 9 5 8 6 6 7 5 8 4 9 1 10 2 11 42 12 3 13
REMARK SMILES IDX 40 14 38 15 43 16 41 18 39 20 37 22 35 24 10 26 11 27 12 28
REMARK SMILES IDX 30 29 21 30 29 31 31 32 22 33 27 34 23 35 26 36 24 37 13 38
REMARK SMILES IDX 20 39 14 40 18 41 15 42 16 43 19 44 17 46 28 48 25 50 33 52
REMARK H PARENT 43 17 41 19 39 21 37 23 35 25 19 45 17 47 28 49 25 51 33 53
REMARK Flexibility Score: inf
ROOT
ATOM      1  C   UNL     1      46.128   8.723  25.871  1.00  0.00     0.180 C 
ATOM      2  C   UNL     1      46.271   9.576  27.165  1.00  0.00     0.177 C 
ATOM      3  C   UNL     1      44.895  10.120  27.584  1.00  0.00     0.180 C 
ATOM      4  C   UNL     1      43.863   8.968  27.646  1.00  0.00     0.214 C 
ATOM      5  C   UNL     1      43.889   8.147  26.345  1.00  0.00     0.339 C 
ATOM      6  O   UNL     1      45.198   7.668  26.060  1.00  0.00    -0.332 OA
ENDROOT
BRANCH   1   7
ATOM      7  C   UNL     1      47.464   8.110  25.442  1.00  0.00     0.198 C 
BRANCH   7   8
ATOM      8  O   UNL     1      47.353   6.705  25.328  1.00  0.00    -0.347 OA
BRANCH   8   9
ATOM      9  C   UNL     1      48.295   6.050  26.171  1.00  0.00     0.281 C 
ATOM     10  C   UNL     1      50.247   7.422  28.962  1.00  0.00     0.041 C 
ATOM     11  C   UNL     1      49.411   6.382  28.209  1.00  0.00     0.150 C 
ATOM     12  C   UNL     1      48.355   5.674  29.109  1.00  0.00     0.174 C 
ATOM     13  O   UNL     1      48.769   7.008  27.115  1.00  0.00    -0.344 OA
ATOM     14  C   UNL     1      47.153   5.170  28.266  1.00  0.00     0.179 C 
ATOM     15  C   UNL     1      47.624   4.813  26.844  1.00  0.00     0.202 C 
BRANCH  12  16
ATOM     16  O   UNL     1      47.883   6.518  30.133  1.00  0.00    -0.388 OA
ATOM     17  H   UNL     1      46.892   6.443  30.142  1.00  0.00     0.211 HD
ENDBRANCH  12  16
BRANCH  14  18
ATOM     18  O   UNL     1      46.153   6.156  28.208  1.00  0.00    -0.387 OA
ATOM     19  H   UNL     1      46.609   7.032  28.268  1.00  0.00     0.211 HD
ENDBRANCH  14  18
BRANCH  15  20
ATOM     20  O   UNL     1      46.554   4.322  26.080  1.00  0.00    -0.385 OA
ATOM     21  H   UNL     1      46.291   3.445  26.471  1.00  0.00     0.211 HD
ENDBRANCH  15  20
ENDBRANCH   8   9
ENDBRANCH   7   8
ENDBRANCH   1   7
BRANCH   2  22
ATOM     22  O   UNL     1      46.857   8.857  28.231  1.00  0.00    -0.387 OA
ATOM     23  H   UNL     1      47.837   8.988  28.185  1.00  0.00     0.211 HD
ENDBRANCH   2  22
BRANCH   3  24
ATOM     24  O   UNL     1      44.498  11.113  26.669  1.00  0.00    -0.387 OA
ATOM     25  H   UNL     1      45.327  11.470  26.244  1.00  0.00     0.211 HD
ENDBRANCH   3  24
BRANCH   5  26
ATOM     26  O   UNL     1      43.362   8.914  25.259  1.00  0.00    -0.454 OA
BRANCH  26  27
ATOM     27  C   UNL     1      42.216   8.594  24.509  1.00  0.00     0.214 A 
ATOM     28  C   UNL     1      42.372   7.737  23.409  1.00  0.00     0.180 A 
ATOM     29  C   UNL     1      40.924   9.057  24.825  1.00  0.00     0.239 A 
ATOM     30  O   UNL     1      41.324   7.386  22.674  1.00  0.00    -0.452 OA
ATOM     31  C   UNL     1      39.836   8.678  24.004  1.00  0.00     0.111 A 
ATOM     32  O   UNL     1      40.743   9.788  25.834  1.00  0.00    -0.285 OA
ATOM     33  C   UNL     1      40.096   7.816  22.914  1.00  0.00     0.146 A 
ATOM     34  C   UNL     1      38.511   9.116  24.228  1.00  0.00     0.134 A 
ATOM     35  C   UNL     1      39.062   7.422  22.057  1.00  0.00     0.094 A 
ATOM     36  C   UNL     1      37.483   8.701  23.363  1.00  0.00     0.093 A 
ATOM     37  C   UNL     1      37.755   7.872  22.274  1.00  0.00     0.123 A 
BRANCH  28  38
ATOM     38  C   UNL     1      43.696   7.245  23.015  1.00  0.00     0.025 A 
ATOM     39  C   UNL     1      44.052   5.912  23.276  1.00  0.00     0.062 A 
ATOM     40  C   UNL     1      44.627   8.115  22.432  1.00  0.00     0.016 A 
ATOM     41  C   UNL     1      45.338   5.448  22.967  1.00  0.00     0.158 A 
ATOM     42  C   UNL     1      45.907   7.659  22.106  1.00  0.00     0.051 A 
ATOM     43  C   UNL     1      46.281   6.334  22.389  1.00  0.00     0.157 A 
BRANCH  41  44
ATOM     44  O   UNL     1      45.636   4.113  23.246  1.00  0.00    -0.504 OA
ATOM     45  H   UNL     1      44.942   3.440  23.530  1.00  0.00     0.293 HD
ENDBRANCH  41  44
BRANCH  43  46
ATOM     46  O   UNL     1      47.598   5.957  22.125  1.00  0.00    -0.504 OA
ATOM     47  H   UNL     1      47.921   5.002  22.172  1.00  0.00     0.293 HD
ENDBRANCH  43  46
ENDBRANCH  28  38
BRANCH  34  48
ATOM     48  O   UNL     1      38.205   9.964  25.299  1.00  0.00    -0.507 OA
ATOM     49  H   UNL     1      38.875  10.154  26.036  1.00  0.00     0.293 HD
ENDBRANCH  34  48
BRANCH  37  50
ATOM     50  O   UNL     1      36.724   7.501  21.407  1.00  0.00    -0.508 OA
ATOM     51  H   UNL     1      36.838   6.759  20.729  1.00  0.00     0.293 HD
ENDBRANCH  37  50
ENDBRANCH  26  27
ENDBRANCH   5  26
BRANCH   4  52
ATOM     52  O   UNL     1      42.568   9.463  27.855  1.00  0.00    -0.384 OA
ATOM     53  H   UNL     1      41.986   8.674  28.037  1.00  0.00     0.211 HD
ENDBRANCH   4  52
TORSDOF 16
ENDMDL
MODEL 4
REMARK VINA RESULT:    -4.082      4.111      9.995
REMARK INTER + INTRA:         -10.458
REMARK INTER:                  -7.276
REMARK INTRA:                  -3.182
REMARK UNBOUND:                -3.751
REMARK SMILES C[C@@H]1O[C@H](OC[C@H]2O[C@H](Oc3c(-c4ccc(O)c(O)c4)oc4cc(O)cc(O)c4c3=O)[C@H](O)[C@H](O)[C@H]2O)[C@H](O)[C@H](O)[C@@H]1O
REMARK SMILES IDX 7 1 36 2 34 3 32 4 9 5 8 6 6 7 5 8 4 9 1 10 2 11 42 12 3 13
REMARK SMILES IDX 40 14 38 15 43 16 41 18 39 20 37 22 35 24 10 26 11 27 12 28
REMARK SMILES IDX 30 29 21 30 29 31 31 32 22 33 27 34 23 35 26 36 24 37 13 38
REMARK SMILES IDX 20 39 14 40 18 41 15 42 16 43 19 44 17 46 28 48 25 50 33 52
REMARK H PARENT 43 17 41 19 39 21 37 23 35 25 19 45 17 47 28 49 25 51 33 53
REMARK Flexibility Score: inf
ROOT
ATOM      1  C   UNL     1      37.900   7.514  25.614  1.00  0.00     0.180 C 
ATOM      2  C   UNL     1      36.830   7.917  24.559  1.00  0.00     0.177 C 
ATOM      3  C   UNL     1      37.521   8.349  23.255  1.00  0.00     0.180 C 
ATOM      4  C   UNL     1      38.537   7.269  22.808  1.00  0.00     0.214 C 
ATOM      5  C   UNL     1      39.473   6.893  23.969  1.00  0.00     0.339 C 
ATOM      6  O   UNL     1      38.740   6.484  25.116  1.00  0.00    -0.332 OA
ENDROOT
BRANCH   1   7
ATOM      7  C   UNL     1      37.261   7.021  26.916  1.00  0.00     0.198 C 
BRANCH   7   8
ATOM      8  O   UNL     1      37.120   5.615  26.899  1.00  0.00    -0.347 OA
BRANCH   8   9
ATOM      9  C   UNL     1      35.875   5.221  27.468  1.00  0.00     0.281 C 
ATOM     10  C   UNL     1      32.875   3.927  25.791  1.00  0.00     0.041 C 
ATOM     11  C   UNL     1      33.940   4.025  26.889  1.00  0.00     0.150 C 
ATOM     12  C   UNL     1      34.429   2.636  27.397  1.00  0.00     0.174 C 
ATOM     13  O   UNL     1      35.037   4.774  26.404  1.00  0.00    -0.344 OA
ATOM     14  C   UNL     1      35.873   2.725  27.960  1.00  0.00     0.179 C 
ATOM     15  C   UNL     1      36.118   4.125  28.552  1.00  0.00     0.202 C 
BRANCH  12  16
ATOM     16  O   UNL     1      34.384   1.658  26.384  1.00  0.00    -0.388 OA
ATOM     17  H   UNL     1      33.475   1.256  26.405  1.00  0.00     0.211 HD
ENDBRANCH  12  16
BRANCH  14  18
ATOM     18  O   UNL     1      36.807   2.462  26.943  1.00  0.00    -0.387 OA
ATOM     19  H   UNL     1      37.705   2.522  27.356  1.00  0.00     0.211 HD
ENDBRANCH  14  18
BRANCH  15  20
ATOM     20  O   UNL     1      37.409   4.209  29.097  1.00  0.00    -0.385 OA
ATOM     21  H   UNL     1      37.373   3.802  30.004  1.00  0.00     0.211 HD
ENDBRANCH  15  20
ENDBRANCH   8   9
ENDBRANCH   7   8
ENDBRANCH   1   7
BRANCH   2  22
ATOM     22  O   UNL     1      35.902   6.883  24.301  1.00  0.00    -0.387 OA
ATOM     23  H   UNL     1      36.385   6.145  23.853  1.00  0.00     0.211 HD
ENDBRANCH   2  22
BRANCH   3  24
ATOM     24  O   UNL     1      38.152   9.590  23.461  1.00  0.00    -0.387 OA
ATOM     25  H   UNL     1      37.434  10.257  23.648  1.00  0.00     0.211 HD
ENDBRANCH   3  24
BRANCH   5  26
ATOM     26  O   UNL     1      40.357   7.978  24.269  1.00  0.00    -0.454 OA
BRANCH  26  27
ATOM     27  C   UNL     1      41.758   7.893  24.362  1.00  0.00     0.214 A 
ATOM     28  C   UNL     1      42.331   7.890  25.644  1.00  0.00     0.180 A 
ATOM     29  C   UNL     1      42.607   7.774  23.245  1.00  0.00     0.239 A 
ATOM     30  O   UNL     1      43.645   7.795  25.795  1.00  0.00    -0.452 OA
ATOM     31  C   UNL     1      44.005   7.696  23.446  1.00  0.00     0.111 A 
ATOM     32  O   UNL     1      42.122   7.723  22.084  1.00  0.00    -0.285 OA
ATOM     33  C   UNL     1      44.486   7.709  24.776  1.00  0.00     0.146 A 
ATOM     34  C   UNL     1      44.934   7.603  22.385  1.00  0.00     0.134 A 
ATOM     35  C   UNL     1      45.859   7.654  25.037  1.00  0.00     0.094 A 
ATOM     36  C   UNL     1      46.311   7.537  22.667  1.00  0.00     0.093 A 
ATOM     37  C   UNL     1      46.775   7.578  23.981  1.00  0.00     0.123 A 
BRANCH  28  38
ATOM     38  C   UNL     1      41.499   8.039  26.843  1.00  0.00     0.025 A 
ATOM     39  C   UNL     1      41.124   6.903  27.577  1.00  0.00     0.062 A 
ATOM     40  C   UNL     1      41.032   9.304  27.225  1.00  0.00     0.016 A 
ATOM     41  C   UNL     1      40.274   7.024  28.685  1.00  0.00     0.158 A 
ATOM     42  C   UNL     1      40.197   9.438  28.337  1.00  0.00     0.051 A 
ATOM     43  C   UNL     1      39.794   8.303  29.062  1.00  0.00     0.157 A 
BRANCH  41  44
ATOM     44  O   UNL     1      39.935   5.861  29.380  1.00  0.00    -0.504 OA
ATOM     45  H   UNL     1      40.416   5.555  30.211  1.00  0.00     0.293 HD
ENDBRANCH  41  44
BRANCH  43  46
ATOM     46  O   UNL     1      38.888   8.485  30.107  1.00  0.00    -0.504 OA
ATOM     47  H   UNL     1      39.136   8.378  31.080  1.00  0.00     0.293 HD
ENDBRANCH  43  46
ENDBRANCH  28  38
BRANCH  34  48
ATOM     48  O   UNL     1      44.505   7.580  21.053  1.00  0.00    -0.507 OA
ATOM     49  H   UNL     1      43.555   7.324  20.805  1.00  0.00     0.293 HD
ENDBRANCH  34  48
BRANCH  37  50
ATOM     50  O   UNL     1      48.150   7.547  24.235  1.00  0.00    -0.508 OA
ATOM     51  H   UNL     1      48.559   8.043  25.016  1.00  0.00     0.293 HD
ENDBRANCH  37  50
ENDBRANCH  26  27
ENDBRANCH   5  26
BRANCH   4  52
ATOM     52  O   UNL     1      39.302   7.717  21.722  1.00  0.00    -0.384 OA
ATOM     53  H   UNL     1      40.245   7.450  21.906  1.00  0.00     0.211 HD
ENDBRANCH   4  52
TORSDOF 16
ENDMDL
MODEL 5
REMARK VINA RESULT:    -4.051      9.185     11.176
REMARK INTER + INTRA:         -10.407
REMARK INTER:                  -6.313
REMARK INTRA:                  -4.094
REMARK UNBOUND:                -3.751
REMARK SMILES C[C@@H]1O[C@H](OC[C@H]2O[C@H](Oc3c(-c4ccc(O)c(O)c4)oc4cc(O)cc(O)c4c3=O)[C@H](O)[C@H](O)[C@H]2O)[C@H](O)[C@H](O)[C@@H]1O
REMARK SMILES IDX 7 1 36 2 34 3 32 4 9 5 8 6 6 7 5 8 4 9 1 10 2 11 42 12 3 13
REMARK SMILES IDX 40 14 38 15 43 16 41 18 39 20 37 22 35 24 10 26 11 27 12 28
REMARK SMILES IDX 30 29 21 30 29 31 31 32 22 33 27 34 23 35 26 36 24 37 13 38
REMARK SMILES IDX 20 39 14 40 18 41 15 42 16 43 19 44 17 46 28 48 25 50 33 52
REMARK H PARENT 43 17 41 19 39 21 37 23 35 25 19 45 17 47 28 49 25 51 33 53
REMARK Flexibility Score: inf
ROOT
ATOM      1  C   UNL     1      40.780  16.952  18.424  1.00  0.00     0.180 C 
ATOM      2  C   UNL     1      40.217  17.797  19.603  1.00  0.00     0.177 C 
ATOM      3  C   UNL     1      38.823  17.278  19.996  1.00  0.00     0.180 C 
ATOM      4  C   UNL     1      38.869  15.747  20.223  1.00  0.00     0.214 C 
ATOM      5  C   UNL     1      39.534  15.041  19.029  1.00  0.00     0.339 C 
ATOM      6  O   UNL     1      40.826  15.574  18.764  1.00  0.00    -0.332 OA
ENDROOT
BRANCH   1   7
ATOM      7  C   UNL     1      42.194  17.393  18.032  1.00  0.00     0.198 C 
BRANCH   7   8
ATOM      8  O   UNL     1      43.090  16.301  18.092  1.00  0.00    -0.347 OA
BRANCH   8   9
ATOM      9  C   UNL     1      44.165  16.574  18.986  1.00  0.00     0.281 C 
ATOM     10  C   UNL     1      44.404  19.144  21.597  1.00  0.00     0.041 C 
ATOM     11  C   UNL     1      44.592  17.761  20.965  1.00  0.00     0.150 C 
ATOM     12  C   UNL     1      44.285  16.590  21.947  1.00  0.00     0.174 C 
ATOM     13  O   UNL     1      43.767  17.659  19.821  1.00  0.00    -0.344 OA
ATOM     14  C   UNL     1      43.841  15.318  21.175  1.00  0.00     0.179 C 
ATOM     15  C   UNL     1      44.516  15.284  19.791  1.00  0.00     0.202 C 
BRANCH  12  16
ATOM     16  O   UNL     1      43.292  16.935  22.885  1.00  0.00    -0.388 OA
ATOM     17  H   UNL     1      42.562  17.388  22.386  1.00  0.00     0.211 HD
ENDBRANCH  12  16
BRANCH  14  18
ATOM     18  O   UNL     1      42.443  15.301  21.029  1.00  0.00    -0.387 OA
ATOM     19  H   UNL     1      42.249  14.825  20.183  1.00  0.00     0.211 HD
ENDBRANCH  14  18
BRANCH  15  20
ATOM     20  O   UNL     1      44.152  14.121  19.095  1.00  0.00    -0.385 OA
ATOM     21  H   UNL     1      43.257  14.286  18.693  1.00  0.00     0.211 HD
ENDBRANCH  15  20
ENDBRANCH   8   9
ENDBRANCH   7   8
ENDBRANCH   1   7
BRANCH   2  22
ATOM     22  O   UNL     1      41.071  17.800  20.729  1.00  0.00    -0.387 OA
ATOM     23  H   UNL     1      41.453  18.709  20.820  1.00  0.00     0.211 HD
ENDBRANCH   2  22
BRANCH   3  24
ATOM     24  O   UNL     1      37.907  17.616  18.982  1.00  0.00    -0.387 OA
ATOM     25  H   UNL     1      38.368  17.470  18.109  1.00  0.00     0.211 HD
ENDBRANCH   3  24
BRANCH   5  26
ATOM     26  O   UNL     1      38.690  15.111  17.875  1.00  0.00    -0.454 OA
BRANCH  26  27
ATOM     27  C   UNL     1      38.124  14.011  17.205  1.00  0.00     0.214 A 
ATOM     28  C   UNL     1      38.892  13.383  16.212  1.00  0.00     0.180 A 
ATOM     29  C   UNL     1      36.851  13.488  17.503  1.00  0.00     0.239 A 
ATOM     30  O   UNL     1      38.419  12.331  15.558  1.00  0.00    -0.452 OA
ATOM     31  C   UNL     1      36.373  12.377  16.769  1.00  0.00     0.111 A 
ATOM     32  O   UNL     1      36.157  13.997  18.423  1.00  0.00    -0.285 OA
ATOM     33  C   UNL     1      37.218  11.820  15.783  1.00  0.00     0.146 A 
ATOM     34  C   UNL     1      35.098  11.804  16.980  1.00  0.00     0.134 A 
ATOM     35  C   UNL     1      36.792  10.733  15.012  1.00  0.00     0.094 A 
ATOM     36  C   UNL     1      34.691  10.704  16.203  1.00  0.00     0.093 A 
ATOM     37  C   UNL     1      35.523  10.179  15.215  1.00  0.00     0.123 A 
BRANCH  28  38
ATOM     38  C   UNL     1      40.214  13.900  15.839  1.00  0.00     0.025 A 
ATOM     39  C   UNL     1      41.371  13.226  16.260  1.00  0.00     0.062 A 
ATOM     40  C   UNL     1      40.325  15.093  15.113  1.00  0.00     0.016 A 
ATOM     41  C   UNL     1      42.639  13.746  15.969  1.00  0.00     0.158 A 
ATOM     42  C   UNL     1      41.585  15.612  14.804  1.00  0.00     0.051 A 
ATOM     43  C   UNL     1      42.748  14.960  15.245  1.00  0.00     0.157 A 
BRANCH  41  44
ATOM     44  O   UNL     1      43.756  13.033  16.411  1.00  0.00    -0.504 OA
ATOM     45  H   UNL     1      44.353  13.351  17.158  1.00  0.00     0.293 HD
ENDBRANCH  41  44
BRANCH  43  46
ATOM     46  O   UNL     1      43.976  15.569  14.986  1.00  0.00    -0.504 OA
ATOM     47  H   UNL     1      44.750  15.554  15.634  1.00  0.00     0.293 HD
ENDBRANCH  43  46
ENDBRANCH  28  38
BRANCH  34  48
ATOM     48  O   UNL     1      34.229  12.317  17.950  1.00  0.00    -0.507 OA
ATOM     49  H   UNL     1      33.598  13.084  17.746  1.00  0.00     0.293 HD
ENDBRANCH  34  48
BRANCH  37  50
ATOM     50  O   UNL     1      35.082   9.108  14.431  1.00  0.00    -0.508 OA
ATOM     51  H   UNL     1      35.715   8.390  14.105  1.00  0.00     0.293 HD
ENDBRANCH  37  50
ENDBRANCH  26  27
ENDBRANCH   5  26
BRANCH   4  52
ATOM     52  O   UNL     1      37.581  15.227  20.410  1.00  0.00    -0.384 OA
ATOM     53  H   UNL     1      37.560  14.838  21.328  1.00  0.00     0.211 HD
ENDBRANCH   4  52
TORSDOF 16
ENDMDL
MODEL 6
REMARK VINA RESULT:    -4.043      4.032      9.205
REMARK INTER + INTRA:         -10.395
REMARK INTER:                  -7.916
REMARK INTRA:                  -2.479
REMARK UNBOUND:                -3.751
REMARK SMILES C[C@@H]1O[C@H](OC[C@H]2O[C@H](Oc3c(-c4ccc(O)c(O)c4)oc4cc(O)cc(O)c4c3=O)[C@H](O)[C@H](O)[C@H]2O)[C@H](O)[C@H](O)[C@@H]1O
REMARK SMILES IDX 7 1 36 2 34 3 32 4 9 5 8 6 6 7 5 8 4 9 1 10 2 11 42 12 3 13
REMARK SMILES IDX 40 14 38 15 43 16 41 18 39 20 37 22 35 24 10 26 11 27 12 28
REMARK SMILES IDX 30 29 21 30 29 31 31 32 22 33 27 34 23 35 26 36 24 37 13 38
REMARK SMILES IDX 20 39 14 40 18 41 15 42 16 43 19 44 17 46 28 48 25 50 33 52
REMARK H PARENT 43 17 41 19 39 21 37 23 35 25 19 45 17 47 28 49 25 51 33 53
REMARK Flexibility Score: inf
ROOT
ATOM      1  C   UNL     1      46.272   1.549  21.839  1.00  0.00     0.180 C 
ATOM      2  C   UNL     1      45.233   0.838  22.753  1.00  0.00     0.177 C 
ATOM      3  C   UNL     1      44.832   1.771  23.908  1.00  0.00     0.180 C 
ATOM      4  C   UNL     1      44.410   3.154  23.354  1.00  0.00     0.214 C 
ATOM      5  C   UNL     1      45.478   3.701  22.392  1.00  0.00     0.339 C 
ATOM      6  O   UNL     1      45.758   2.778  21.348  1.00  0.00    -0.332 OA
ENDROOT
BRANCH   1   7
ATOM      7  C   UNL     1      46.663   0.682  20.638  1.00  0.00     0.198 C 
BRANCH   7   8
ATOM      8  O   UNL     1      46.609   1.434  19.443  1.00  0.00    -0.347 OA
BRANCH   8   9
ATOM      9  C   UNL     1      45.721   0.835  18.504  1.00  0.00     0.281 C 
ATOM     10  C   UNL     1      42.163   0.014  18.885  1.00  0.00     0.041 C 
ATOM     11  C   UNL     1      43.421   0.513  18.166  1.00  0.00     0.150 C 
ATOM     12  C   UNL     1      43.179   1.804  17.329  1.00  0.00     0.174 C 
ATOM     13  O   UNL     1      44.440   0.741  19.121  1.00  0.00    -0.344 OA
ATOM     14  C   UNL     1      44.489   2.624  17.179  1.00  0.00     0.179 C 
ATOM     15  C   UNL     1      45.704   1.677  17.190  1.00  0.00     0.202 C 
BRANCH  12  16
ATOM     16  O   UNL     1      42.181   2.621  17.894  1.00  0.00    -0.388 OA
ATOM     17  H   UNL     1      41.407   2.612  17.272  1.00  0.00     0.211 HD
ENDBRANCH  12  16
BRANCH  14  18
ATOM     18  O   UNL     1      44.599   3.559  18.223  1.00  0.00    -0.387 OA
ATOM     19  H   UNL     1      44.411   4.448  17.833  1.00  0.00     0.211 HD
ENDBRANCH  14  18
BRANCH  15  20
ATOM     20  O   UNL     1      46.894   2.401  17.020  1.00  0.00    -0.385 OA
ATOM     21  H   UNL     1      47.058   2.473  16.041  1.00  0.00     0.211 HD
ENDBRANCH  15  20
ENDBRANCH   8   9
ENDBRANCH   7   8
ENDBRANCH   1   7
BRANCH   2  22
ATOM     22  O   UNL     1      44.084   0.414  22.047  1.00  0.00    -0.387 OA
ATOM     23  H   UNL     1      43.317   0.433  22.672  1.00  0.00     0.211 HD
ENDBRANCH   2  22
BRANCH   3  24
ATOM     24  O   UNL     1      45.915   1.887  24.799  1.00  0.00    -0.387 OA
ATOM     25  H   UNL     1      45.568   1.681  25.712  1.00  0.00     0.211 HD
ENDBRANCH   3  24
BRANCH   5  26
ATOM     26  O   UNL     1      46.663   4.056  23.112  1.00  0.00    -0.454 OA
BRANCH  26  27
ATOM     27  C   UNL     1      47.670   4.925  22.655  1.00  0.00     0.214 A 
ATOM     28  C   UNL     1      47.442   6.306  22.760  1.00  0.00     0.180 A 
ATOM     29  C   UNL     1      48.902   4.484  22.135  1.00  0.00     0.239 A 
ATOM     30  O   UNL     1      48.362   7.174  22.361  1.00  0.00    -0.452 OA
ATOM     31  C   UNL     1      49.850   5.440  21.700  1.00  0.00     0.111 A 
ATOM     32  O   UNL     1      49.159   3.252  22.073  1.00  0.00    -0.285 OA
ATOM     33  C   UNL     1      49.524   6.809  21.841  1.00  0.00     0.146 A 
ATOM     34  C   UNL     1      51.100   5.090  21.140  1.00  0.00     0.134 A 
ATOM     35  C   UNL     1      50.413   7.800  21.411  1.00  0.00     0.094 A 
ATOM     36  C   UNL     1      51.986   6.100  20.724  1.00  0.00     0.093 A 
ATOM     37  C   UNL     1      51.642   7.447  20.843  1.00  0.00     0.123 A 
BRANCH  28  38
ATOM     38  C   UNL     1      46.167   6.825  23.268  1.00  0.00     0.025 A 
ATOM     39  C   UNL     1      45.110   7.073  22.378  1.00  0.00     0.062 A 
ATOM     40  C   UNL     1      46.022   7.127  24.629  1.00  0.00     0.016 A 
ATOM     41  C   UNL     1      43.912   7.633  22.841  1.00  0.00     0.158 A 
ATOM     42  C   UNL     1      44.826   7.671  25.103  1.00  0.00     0.051 A 
ATOM     43  C   UNL     1      43.772   7.949  24.216  1.00  0.00     0.157 A 
BRANCH  41  44
ATOM     44  O   UNL     1      42.892   7.856  21.913  1.00  0.00    -0.504 OA
ATOM     45  H   UNL     1      41.914   7.836  22.152  1.00  0.00     0.293 HD
ENDBRANCH  41  44
BRANCH  43  46
ATOM     46  O   UNL     1      42.635   8.574  24.728  1.00  0.00    -0.504 OA
ATOM     47  H   UNL     1      41.799   8.736  24.185  1.00  0.00     0.293 HD
ENDBRANCH  43  46
ENDBRANCH  28  38
BRANCH  34  48
ATOM     48  O   UNL     1      51.469   3.748  20.987  1.00  0.00    -0.507 OA
ATOM     49  H   UNL     1      51.083   3.020  21.578  1.00  0.00     0.293 HD
ENDBRANCH  34  48
BRANCH  37  50
ATOM     50  O   UNL     1      52.524   8.433  20.390  1.00  0.00    -0.508 OA
ATOM     51  H   UNL     1      53.526   8.300  20.409  1.00  0.00     0.293 HD
ENDBRANCH  37  50
ENDBRANCH  26  27
ENDBRANCH   5  26
BRANCH   4  52
ATOM     52  O   UNL     1      44.208   4.073  24.394  1.00  0.00    -0.384 OA
ATOM     53  H   UNL     1      44.438   3.601  25.241  1.00  0.00     0.211 HD
ENDBRANCH   4  52
TORSDOF 16
ENDMDL
MODEL 7
REMARK VINA RESULT:    -3.988      9.423     14.138
REMARK INTER + INTRA:         -10.303
REMARK INTER:                  -8.085
REMARK INTRA:                  -2.218
REMARK UNBOUND:                -3.751
REMARK SMILES C[C@@H]1O[C@H](OC[C@H]2O[C@H](Oc3c(-c4ccc(O)c(O)c4)oc4cc(O)cc(O)c4c3=O)[C@H](O)[C@H](O)[C@H]2O)[C@H](O)[C@H](O)[C@@H]1O
REMARK SMILES IDX 7 1 36 2 34 3 32 4 9 5 8 6 6 7 5 8 4 9 1 10 2 11 42 12 3 13
REMARK SMILES IDX 40 14 38 15 43 16 41 18 39 20 37 22 35 24 10 26 11 27 12 28
REMARK SMILES IDX 30 29 21 30 29 31 31 32 22 33 27 34 23 35 26 36 24 37 13 38
REMARK SMILES IDX 20 39 14 40 18 41 15 42 16 43 19 44 17 46 28 48 25 50 33 52
REMARK H PARENT 43 17 41 19 39 21 37 23 35 25 19 45 17 47 28 49 25 51 33 53
REMARK Flexibility Score: inf
ROOT
ATOM      1  C   UNL     1      38.132  14.057  14.651  1.00  0.00     0.180 C 
ATOM      2  C   UNL     1      37.975  14.149  13.106  1.00  0.00     0.177 C 
ATOM      3  C   UNL     1      39.341  14.434  12.460  1.00  0.00     0.180 C 
ATOM      4  C   UNL     1      40.395  13.422  12.972  1.00  0.00     0.214 C 
ATOM      5  C   UNL     1      40.382  13.359  14.509  1.00  0.00     0.339 C 
ATOM      6  O   UNL     1      39.082  13.064  15.006  1.00  0.00    -0.332 OA
ENDROOT
BRANCH   1   7
ATOM      7  C   UNL     1      36.807  13.718  15.340  1.00  0.00     0.198 C 
BRANCH   7   8
ATOM      8  O   UNL     1      36.495  12.349  15.171  1.00  0.00    -0.347 OA
BRANCH   8   9
ATOM      9  C   UNL     1      35.117  12.177  14.857  1.00  0.00     0.281 C 
ATOM     10  C   UNL     1      33.595  10.765  11.828  1.00  0.00     0.041 C 
ATOM     11  C   UNL     1      33.758  11.023  13.330  1.00  0.00     0.150 C 
ATOM     12  C   UNL     1      33.555   9.746  14.199  1.00  0.00     0.174 C 
ATOM     13  O   UNL     1      35.040  11.570  13.569  1.00  0.00    -0.344 OA
ATOM     14  C   UNL     1      34.335   9.853  15.537  1.00  0.00     0.179 C 
ATOM     15  C   UNL     1      34.428  11.328  15.972  1.00  0.00     0.202 C 
BRANCH  12  16
ATOM     16  O   UNL     1      33.953   8.578  13.521  1.00  0.00    -0.388 OA
ATOM     17  H   UNL     1      33.243   8.367  12.858  1.00  0.00     0.211 HD
ENDBRANCH  12  16
BRANCH  14  18
ATOM     18  O   UNL     1      35.623   9.311  15.393  1.00  0.00    -0.387 OA
ATOM     19  H   UNL     1      36.264  10.049  15.549  1.00  0.00     0.211 HD
ENDBRANCH  14  18
BRANCH  15  20
ATOM     20  O   UNL     1      35.101  11.437  17.199  1.00  0.00    -0.385 OA
ATOM     21  H   UNL     1      35.836  12.096  17.074  1.00  0.00     0.211 HD
ENDBRANCH  15  20
ENDBRANCH   8   9
ENDBRANCH   7   8
ENDBRANCH   1   7
BRANCH   2  22
ATOM     22  O   UNL     1      37.403  12.985  12.545  1.00  0.00    -0.387 OA
ATOM     23  H   UNL     1      36.558  12.798  13.025  1.00  0.00     0.211 HD
ENDBRANCH   2  22
BRANCH   3  24
ATOM     24  O   UNL     1      39.718  15.758  12.754  1.00  0.00    -0.387 OA
ATOM     25  H   UNL     1      39.452  16.320  11.974  1.00  0.00     0.211 HD
ENDBRANCH   3  24
BRANCH   5  26
ATOM     26  O   UNL     1      40.893  14.574  15.064  1.00  0.00    -0.454 OA
BRANCH  26  27
ATOM     27  C   UNL     1      41.516  14.705  16.318  1.00  0.00     0.214 A 
ATOM     28  C   UNL     1      42.919  14.693  16.357  1.00  0.00     0.180 A 
ATOM     29  C   UNL     1      40.810  14.882  17.523  1.00  0.00     0.239 A 
ATOM     30  O   UNL     1      43.563  14.830  17.509  1.00  0.00    -0.452 OA
ATOM     31  C   UNL     1      41.532  15.003  18.734  1.00  0.00     0.111 A 
ATOM     32  O   UNL     1      39.552  14.947  17.517  1.00  0.00    -0.285 OA
ATOM     33  C   UNL     1      42.944  14.972  18.671  1.00  0.00     0.146 A 
ATOM     34  C   UNL     1      40.908  15.155  19.993  1.00  0.00     0.134 A 
ATOM     35  C   UNL     1      43.711  15.067  19.837  1.00  0.00     0.094 A 
ATOM     36  C   UNL     1      41.696  15.261  21.154  1.00  0.00     0.093 A 
ATOM     37  C   UNL     1      43.087  15.202  21.082  1.00  0.00     0.123 A 
BRANCH  28  38
ATOM     38  C   UNL     1      43.708  14.485  15.138  1.00  0.00     0.025 A 
ATOM     39  C   UNL     1      44.072  13.184  14.756  1.00  0.00     0.062 A 
ATOM     40  C   UNL     1      44.146  15.584  14.386  1.00  0.00     0.016 A 
ATOM     41  C   UNL     1      44.883  12.977  13.632  1.00  0.00     0.158 A 
ATOM     42  C   UNL     1      44.942  15.387  13.254  1.00  0.00     0.051 A 
ATOM     43  C   UNL     1      45.335  14.091  12.880  1.00  0.00     0.157 A 
BRANCH  41  44
ATOM     44  O   UNL     1      45.213  11.662  13.296  1.00  0.00    -0.504 OA
ATOM     45  H   UNL     1      46.118  11.258  13.476  1.00  0.00     0.293 HD
ENDBRANCH  41  44
BRANCH  43  46
ATOM     46  O   UNL     1      46.202  13.960  11.795  1.00  0.00    -0.504 OA
ATOM     47  H   UNL     1      46.339  13.093  11.297  1.00  0.00     0.293 HD
ENDBRANCH  43  46
ENDBRANCH  28  38
BRANCH  34  48
ATOM     48  O   UNL     1      39.513  15.198  20.105  1.00  0.00    -0.507 OA
ATOM     49  H   UNL     1      38.952  15.809  19.521  1.00  0.00     0.293 HD
ENDBRANCH  34  48
BRANCH  37  50
ATOM     50  O   UNL     1      43.848  15.273  22.253  1.00  0.00    -0.508 OA
ATOM     51  H   UNL     1      44.032  16.153  22.716  1.00  0.00     0.293 HD
ENDBRANCH  37  50
ENDBRANCH  26  27
ENDBRANCH   5  26
BRANCH   4  52
ATOM     52  O   UNL     1      41.680  13.768  12.533  1.00  0.00    -0.384 OA
ATOM     53  H   UNL     1      42.312  13.128  12.964  1.00  0.00     0.211 HD
ENDBRANCH   4  52
TORSDOF 16
ENDMDL
MODEL 8
REMARK VINA RESULT:    -3.981      9.210     12.919
REMARK INTER + INTRA:         -10.292
REMARK INTER:                  -6.741
REMARK INTRA:                  -3.552
REMARK UNBOUND:                -3.751
REMARK SMILES C[C@@H]1O[C@H](OC[C@H]2O[C@H](Oc3c(-c4ccc(O)c(O)c4)oc4cc(O)cc(O)c4c3=O)[C@H](O)[C@H](O)[C@H]2O)[C@H](O)[C@H](O)[C@@H]1O
REMARK SMILES IDX 7 1 36 2 34 3 32 4 9 5 8 6 6 7 5 8 4 9 1 10 2 11 42 12 3 13
REMARK SMILES IDX 40 14 38 15 43 16 41 18 39 20 37 22 35 24 10 26 11 27 12 28
REMARK SMILES IDX 30 29 21 30 29 31 31 32 22 33 27 34 23 35 26 36 24 37 13 38
REMARK SMILES IDX 20 39 14 40 18 41 15 42 16 43 19 44 17 46 28 48 25 50 33 52
REMARK H PARENT 43 17 41 19 39 21 37 23 35 25 19 45 17 47 28 49 25 51 33 53
REMARK Flexibility Score: inf
ROOT
ATOM      1  C   UNL     1      40.757  14.256  14.186  1.00  0.00     0.180 C 
ATOM      2  C   UNL     1      42.201  14.278  13.607  1.00  0.00     0.177 C 
ATOM      3  C   UNL     1      43.216  14.456  14.748  1.00  0.00     0.180 C 
ATOM      4  C   UNL     1      42.952  13.415  15.864  1.00  0.00     0.214 C 
ATOM      5  C   UNL     1      41.471  13.430  16.278  1.00  0.00     0.339 C 
ATOM      6  O   UNL     1      40.616  13.232  15.159  1.00  0.00    -0.332 OA
ENDROOT
BRANCH   1   7
ATOM      7  C   UNL     1      39.708  14.024  13.095  1.00  0.00     0.198 C 
BRANCH   7   8
ATOM      8  O   UNL     1      39.066  12.778  13.279  1.00  0.00    -0.347 OA
BRANCH   8   9
ATOM      9  C   UNL     1      39.124  11.995  12.091  1.00  0.00     0.281 C 
ATOM     10  C   UNL     1      41.767   9.714  10.953  1.00  0.00     0.041 C 
ATOM     11  C   UNL     1      40.332  10.196  11.188  1.00  0.00     0.150 C 
ATOM     12  C   UNL     1      39.381   9.070  11.693  1.00  0.00     0.174 C 
ATOM     13  O   UNL     1      40.348  11.264  12.116  1.00  0.00    -0.344 OA
ATOM     14  C   UNL     1      38.207   9.661  12.519  1.00  0.00     0.179 C 
ATOM     15  C   UNL     1      37.867  11.074  12.009  1.00  0.00     0.202 C 
BRANCH  12  16
ATOM     16  O   UNL     1      40.061   8.113  12.470  1.00  0.00    -0.388 OA
ATOM     17  H   UNL     1      40.445   7.445  11.843  1.00  0.00     0.211 HD
ENDBRANCH  12  16
BRANCH  14  18
ATOM     18  O   UNL     1      38.549   9.711  13.882  1.00  0.00    -0.387 OA
ATOM     19  H   UNL     1      39.380  10.243  13.950  1.00  0.00     0.211 HD
ENDBRANCH  14  18
BRANCH  15  20
ATOM     20  O   UNL     1      36.783  11.607  12.724  1.00  0.00    -0.385 OA
ATOM     21  H   UNL     1      35.953  11.330  12.251  1.00  0.00     0.211 HD
ENDBRANCH  15  20
ENDBRANCH   8   9
ENDBRANCH   7   8
ENDBRANCH   1   7
BRANCH   2  22
ATOM     22  O   UNL     1      42.506  13.120  12.858  1.00  0.00    -0.387 OA
ATOM     23  H   UNL     1      43.278  13.328  12.275  1.00  0.00     0.211 HD
ENDBRANCH   2  22
BRANCH   3  24
ATOM     24  O   UNL     1      43.123  15.770  15.243  1.00  0.00    -0.387 OA
ATOM     25  H   UNL     1      43.166  16.384  14.458  1.00  0.00     0.211 HD
ENDBRANCH   3  24
BRANCH   5  26
ATOM     26  O   UNL     1      41.158  14.643  16.971  1.00  0.00    -0.454 OA
BRANCH  26  27
ATOM     27  C   UNL     1      40.752  14.739  18.314  1.00  0.00     0.214 A 
ATOM     28  C   UNL     1      39.391  14.554  18.601  1.00  0.00     0.180 A 
ATOM     29  C   UNL     1      41.640  14.973  19.381  1.00  0.00     0.239 A 
ATOM     30  O   UNL     1      38.951  14.616  19.851  1.00  0.00    -0.452 OA
ATOM     31  C   UNL     1      41.130  15.054  20.698  1.00  0.00     0.111 A 
ATOM     32  O   UNL     1      42.875  15.094  19.162  1.00  0.00    -0.285 OA
ATOM     33  C   UNL     1      39.742  14.860  20.885  1.00  0.00     0.146 A 
ATOM     34  C   UNL     1      41.941  15.313  21.826  1.00  0.00     0.134 A 
ATOM     35  C   UNL     1      39.177  14.947  22.162  1.00  0.00     0.094 A 
ATOM     36  C   UNL     1      41.357  15.385  23.104  1.00  0.00     0.093 A 
ATOM     37  C   UNL     1      39.983  15.220  23.273  1.00  0.00     0.123 A 
BRANCH  28  38
ATOM     38  C   UNL     1      38.414  14.334  17.529  1.00  0.00     0.025 A 
ATOM     39  C   UNL     1      38.075  13.025  17.151  1.00  0.00     0.062 A 
ATOM     40  C   UNL     1      37.864  15.424  16.842  1.00  0.00     0.016 A 
ATOM     41  C   UNL     1      37.197  12.801  16.083  1.00  0.00     0.158 A 
ATOM     42  C   UNL     1      36.974  15.212  15.785  1.00  0.00     0.051 A 
ATOM     43  C   UNL     1      36.650  13.906  15.383  1.00  0.00     0.157 A 
BRANCH  41  44
ATOM     44  O   UNL     1      36.892  11.478  15.752  1.00  0.00    -0.504 OA
ATOM     45  H   UNL     1      36.875  11.137  14.804  1.00  0.00     0.293 HD
ENDBRANCH  41  44
BRANCH  43  46
ATOM     46  O   UNL     1      35.829  13.752  14.266  1.00  0.00    -0.504 OA
ATOM     47  H   UNL     1      36.010  13.082  13.532  1.00  0.00     0.293 HD
ENDBRANCH  43  46
ENDBRANCH  28  38
BRANCH  34  48
ATOM     48  O   UNL     1      43.321  15.504  21.691  1.00  0.00    -0.507 OA
ATOM     49  H   UNL     1      43.742  16.422  21.783  1.00  0.00     0.293 HD
ENDBRANCH  34  48
BRANCH  37  50
ATOM     50  O   UNL     1      39.420  15.332  24.547  1.00  0.00    -0.508 OA
ATOM     51  H   UNL     1      39.652  16.097  25.167  1.00  0.00     0.293 HD
ENDBRANCH  37  50
ENDBRANCH  26  27
ENDBRANCH   5  26
BRANCH   4  52
ATOM     52  O   UNL     1      43.751  13.668  16.988  1.00  0.00    -0.384 OA
ATOM     53  H   UNL     1      43.668  12.873  17.583  1.00  0.00     0.211 HD
ENDBRANCH   4  52
TORSDOF 16
ENDMDL
MODEL 9
REMARK VINA RESULT:    -3.870      9.645     14.926
REMARK INTER + INTRA:         -10.109
REMARK INTER:                  -5.973
REMARK INTRA:                  -4.136
REMARK UNBOUND:                -3.751
REMARK SMILES C[C@@H]1O[C@H](OC[C@H]2O[C@H](Oc3c(-c4ccc(O)c(O)c4)oc4cc(O)cc(O)c4c3=O)[C@H](O)[C@H](O)[C@H]2O)[C@H](O)[C@H](O)[C@@H]1O
REMARK SMILES IDX 7 1 36 2 34 3 32 4 9 5 8 6 6 7 5 8 4 9 1 10 2 11 42 12 3 13
REMARK SMILES IDX 40 14 38 15 43 16 41 18 39 20 37 22 35 24 10 26 11 27 12 28
REMARK SMILES IDX 30 29 21 30 29 31 31 32 22 33 27 34 23 35 26 36 24 37 13 38
REMARK SMILES IDX 20 39 14 40 18 41 15 42 16 43 19 44 17 46 28 48 25 50 33 52
REMARK H PARENT 43 17 41 19 39 21 37 23 35 25 19 45 17 47 28 49 25 51 33 53
REMARK Flexibility Score: inf
ROOT
ATOM      1  C   UNL     1      36.108  13.499  14.060  1.00  0.00     0.180 C 
ATOM      2  C   UNL     1      36.447  13.274  12.558  1.00  0.00     0.177 C 
ATOM      3  C   UNL     1      37.963  13.409  12.341  1.00  0.00     0.180 C 
ATOM      4  C   UNL     1      38.727  12.513  13.347  1.00  0.00     0.214 C 
ATOM      5  C   UNL     1      38.231  12.765  14.781  1.00  0.00     0.339 C 
ATOM      6  O   UNL     1      36.824  12.590  14.883  1.00  0.00    -0.332 OA
ENDROOT
BRANCH   1   7
ATOM      7  C   UNL     1      34.613  13.319  14.340  1.00  0.00     0.198 C 
BRANCH   7   8
ATOM      8  O   UNL     1      34.406  12.321  15.319  1.00  0.00    -0.347 OA
BRANCH   8   9
ATOM      9  C   UNL     1      33.607  11.261  14.805  1.00  0.00     0.281 C 
ATOM     10  C   UNL     1      32.937  10.356  11.310  1.00  0.00     0.041 C 
ATOM     11  C   UNL     1      33.235  10.111  12.793  1.00  0.00     0.150 C 
ATOM     12  C   UNL     1      34.288   8.987  13.031  1.00  0.00     0.174 C 
ATOM     13  O   UNL     1      33.677  11.318  13.382  1.00  0.00    -0.344 OA
ATOM     14  C   UNL     1      35.035   9.200  14.375  1.00  0.00     0.179 C 
ATOM     15  C   UNL     1      34.107   9.900  15.385  1.00  0.00     0.202 C 
BRANCH  12  16
ATOM     16  O   UNL     1      35.227   8.914  11.983  1.00  0.00    -0.388 OA
ATOM     17  H   UNL     1      36.041   8.478  12.349  1.00  0.00     0.211 HD
ENDBRANCH  12  16
BRANCH  14  18
ATOM     18  O   UNL     1      36.193   9.970  14.171  1.00  0.00    -0.387 OA
ATOM     19  H   UNL     1      35.938  10.720  13.578  1.00  0.00     0.211 HD
ENDBRANCH  14  18
BRANCH  15  20
ATOM     20  O   UNL     1      34.758  10.067  16.617  1.00  0.00    -0.385 OA
ATOM     21  H   UNL     1      35.597  10.572  16.441  1.00  0.00     0.211 HD
ENDBRANCH  15  20
ENDBRANCH   8   9
ENDBRANCH   7   8
ENDBRANCH   1   7
BRANCH   2  22
ATOM     22  O   UNL     1      35.994  12.025  12.077  1.00  0.00    -0.387 OA
ATOM     23  H   UNL     1      35.162  12.178  11.564  1.00  0.00     0.211 HD
ENDBRANCH   2  22
BRANCH   3  24
ATOM     24  O   UNL     1      38.327  14.761  12.483  1.00  0.00    -0.387 OA
ATOM     25  H   UNL     1      37.914  15.089  13.330  1.00  0.00     0.211 HD
ENDBRANCH   3  24
BRANCH   5  26
ATOM     26  O   UNL     1      38.633  14.064  15.228  1.00  0.00    -0.454 OA
BRANCH  26  27
ATOM     27  C   UNL     1      39.429  14.334  16.355  1.00  0.00     0.214 A 
ATOM     28  C   UNL     1      38.777  14.621  17.565  1.00  0.00     0.180 A 
ATOM     29  C   UNL     1      40.837  14.296  16.342  1.00  0.00     0.239 A 
ATOM     30  O   UNL     1      39.475  14.867  18.666  1.00  0.00    -0.452 OA
ATOM     31  C   UNL     1      41.546  14.585  17.532  1.00  0.00     0.111 A 
ATOM     32  O   UNL     1      41.452  13.994  15.285  1.00  0.00    -0.285 OA
ATOM     33  C   UNL     1      40.799  14.869  18.697  1.00  0.00     0.146 A 
ATOM     34  C   UNL     1      42.958  14.598  17.605  1.00  0.00     0.134 A 
ATOM     35  C   UNL     1      41.445  15.181  19.899  1.00  0.00     0.094 A 
ATOM     36  C   UNL     1      43.590  14.902  18.824  1.00  0.00     0.093 A 
ATOM     37  C   UNL     1      42.843  15.207  19.962  1.00  0.00     0.123 A 
BRANCH  28  38
ATOM     38  C   UNL     1      37.314  14.701  17.634  1.00  0.00     0.025 A 
ATOM     39  C   UNL     1      36.570  13.572  18.009  1.00  0.00     0.062 A 
ATOM     40  C   UNL     1      36.655  15.884  17.271  1.00  0.00     0.016 A 
ATOM     41  C   UNL     1      35.169  13.615  18.012  1.00  0.00     0.158 A 
ATOM     42  C   UNL     1      35.259  15.943  17.287  1.00  0.00     0.051 A 
ATOM     43  C   UNL     1      34.505  14.810  17.634  1.00  0.00     0.157 A 
BRANCH  41  44
ATOM     44  O   UNL     1      34.479  12.463  18.396  1.00  0.00    -0.504 OA
ATOM     45  H   UNL     1      34.456  11.623  17.841  1.00  0.00     0.293 HD
ENDBRANCH  41  44
BRANCH  43  46
ATOM     46  O   UNL     1      33.116  14.898  17.546  1.00  0.00    -0.504 OA
ATOM     47  H   UNL     1      32.527  14.123  17.277  1.00  0.00     0.293 HD
ENDBRANCH  43  46
ENDBRANCH  28  38
BRANCH  34  48
ATOM     48  O   UNL     1      43.740  14.316  16.479  1.00  0.00    -0.507 OA
ATOM     49  H   UNL     1      44.195  13.418  16.359  1.00  0.00     0.293 HD
ENDBRANCH  34  48
BRANCH  37  50
ATOM     50  O   UNL     1      43.493  15.542  21.153  1.00  0.00    -0.508 OA
ATOM     51  H   UNL     1      44.184  14.933  21.572  1.00  0.00     0.293 HD
ENDBRANCH  37  50
ENDBRANCH  26  27
ENDBRANCH   5  26
BRANCH   4  52
ATOM     52  O   UNL     1      40.108  12.750  13.286  1.00  0.00    -0.384 OA
ATOM     53  H   UNL     1      40.314  13.423  13.992  1.00  0.00     0.211 HD
ENDBRANCH   4  52
TORSDOF 16
ENDMDL
