MODEL 1
REMARK VINA RESULT:    -5.071      0.000      0.000
REMARK INTER + INTRA:         -13.615
REMARK INTER:                 -11.001
REMARK INTRA:                  -2.614
REMARK UNBOUND:                -2.614
REMARK SMILES CCCCCCCCCCCCCCCCCCCCCC(=O)[O-]
REMARK SMILES IDX 12 1 11 2 10 3 9 4 8 5 7 6 6 7 5 8 4 9 3 10 2 11 1 12 13 13
REMARK SMILES IDX 14 14 15 15 16 16 17 17 18 18 19 19 20 20 21 21 22 22 23 23
REMARK SMILES IDX 24 24
REMARK H PARENT
REMARK Flexibility Score: inf
ROOT
ATOM      1  C   UNL     1      43.357  -3.215  28.628  1.00  0.00     0.000 C 
ENDROOT
BRANCH   1   2
ATOM      2  C   UNL     1      43.192  -2.006  29.556  1.00  0.00     0.000 C 
BRANCH   2   3
ATOM      3  C   UNL     1      42.943  -2.449  31.004  1.00  0.00     0.000 C 
BRANCH   3   4
ATOM      4  C   UNL     1      41.545  -2.060  31.516  1.00  0.00    -0.000 C 
BRANCH   4   5
ATOM      5  C   UNL     1      41.135  -0.618  31.149  1.00  0.00    -0.000 C 
BRANCH   5   6
ATOM      6  C   UNL     1      39.960  -0.582  30.156  1.00  0.00    -0.000 C 
BRANCH   6   7
ATOM      7  C   UNL     1      39.189  -1.912  30.088  1.00  0.00    -0.000 C 
BRANCH   7   8
ATOM      8  C   UNL     1      38.785  -2.355  28.672  1.00  0.00    -0.000 C 
BRANCH   8   9
ATOM      9  C   UNL     1      39.397  -3.705  28.268  1.00  0.00    -0.000 C 
BRANCH   9  10
ATOM     10  C   UNL     1      39.401  -3.870  26.741  1.00  0.00    -0.000 C 
BRANCH  10  11
ATOM     11  C   UNL     1      39.196  -5.328  26.303  1.00  0.00    -0.003 C 
ATOM     12  C   UNL     1      39.323  -6.318  27.461  1.00  0.00     0.004 C 
ENDBRANCH  10  11
ENDBRANCH   9  10
ENDBRANCH   8   9
ENDBRANCH   7   8
ENDBRANCH   6   7
ENDBRANCH   5   6
ENDBRANCH   4   5
ENDBRANCH   3   4
ENDBRANCH   2   3
ENDBRANCH   1   2
BRANCH   1  13
ATOM     13  C   UNL     1      42.817  -4.489  29.293  1.00  0.00     0.000 C 
BRANCH  13  14
ATOM     14  C   UNL     1      42.912  -5.722  28.380  1.00  0.00     0.000 C 
BRANCH  14  15
ATOM     15  C   UNL     1      42.920  -5.355  26.888  1.00  0.00     0.000 C 
BRANCH  15  16
ATOM     16  C   UNL     1      44.293  -5.644  26.263  1.00  0.00     0.000 C 
BRANCH  16  17
ATOM     17  C   UNL     1      45.068  -6.744  27.007  1.00  0.00     0.000 C 
BRANCH  17  18
ATOM     18  C   UNL     1      45.535  -7.921  26.127  1.00  0.00     0.000 C 
BRANCH  18  19
ATOM     19  C   UNL     1      45.275  -7.715  24.620  1.00  0.00     0.000 C 
BRANCH  19  20
ATOM     20  C   UNL     1      46.569  -7.430  23.837  1.00  0.00     0.006 C 
BRANCH  20  21
ATOM     21  C   UNL     1      47.777  -7.236  24.761  1.00  0.00     0.053 C 
BRANCH  21  22
ATOM     22  C   UNL     1      48.270  -5.820  24.744  1.00  0.00     0.041 C 
ATOM     23  O   UNL     1      48.435  -5.219  23.649  1.00  0.00    -0.550 OA
ATOM     24  O   UNL     1      48.533  -5.160  25.938  1.00  0.00    -0.550 OA
ENDBRANCH  21  22
ENDBRANCH  20  21
ENDBRANCH  19  20
ENDBRANCH  18  19
ENDBRANCH  17  18
ENDBRANCH  16  17
ENDBRANCH  15  16
ENDBRANCH  14  15
ENDBRANCH  13  14
ENDBRANCH   1  13
TORSDOF 20
ENDMDL
MODEL 2
REMARK VINA RESULT:    -4.980      5.009      9.176
REMARK INTER + INTRA:         -13.416
REMARK INTER:                 -11.952
REMARK INTRA:                  -1.464
REMARK UNBOUND:                -2.614
REMARK SMILES CCCCCCCCCCCCCCCCCCCCCC(=O)[O-]
REMARK SMILES IDX 12 1 11 2 10 3 9 4 8 5 7 6 6 7 5 8 4 9 3 10 2 11 1 12 13 13
REMARK SMILES IDX 14 14 15 15 16 16 17 17 18 18 19 19 20 20 21 21 22 22 23 23
REMARK SMILES IDX 24 24
REMARK H PARENT
REMARK Flexibility Score: inf
ROOT
ATOM      1  C   UNL     1      41.522  -4.737  29.449  1.00  0.00     0.000 C 
ENDROOT
BRANCH   1   2
ATOM      2  C   UNL     1      42.332  -3.544  28.930  1.00  0.00     0.000 C 
BRANCH   2   3
ATOM      3  C   UNL     1      43.626  -4.008  28.249  1.00  0.00     0.000 C 
BRANCH   3   4
ATOM      4  C   UNL     1      43.394  -5.137  27.229  1.00  0.00    -0.000 C 
BRANCH   4   5
ATOM      5  C   UNL     1      44.661  -5.524  26.440  1.00  0.00    -0.000 C 
BRANCH   5   6
ATOM      6  C   UNL     1      45.427  -6.684  27.101  1.00  0.00    -0.000 C 
BRANCH   6   7
ATOM      7  C   UNL     1      45.852  -7.772  26.098  1.00  0.00    -0.000 C 
BRANCH   7   8
ATOM      8  C   UNL     1      45.821  -7.338  24.622  1.00  0.00    -0.000 C 
BRANCH   8   9
ATOM      9  C   UNL     1      47.213  -7.325  23.972  1.00  0.00    -0.000 C 
BRANCH   9  10
ATOM     10  C   UNL     1      48.313  -7.491  25.029  1.00  0.00    -0.000 C 
BRANCH  10  11
ATOM     11  C   UNL     1      49.640  -6.839  24.610  1.00  0.00    -0.003 C 
ATOM     12  C   UNL     1      50.281  -6.024  25.734  1.00  0.00     0.004 C 
ENDBRANCH  10  11
ENDBRANCH   9  10
ENDBRANCH   8   9
ENDBRANCH   7   8
ENDBRANCH   6   7
ENDBRANCH   5   6
ENDBRANCH   4   5
ENDBRANCH   3   4
ENDBRANCH   2   3
ENDBRANCH   1   2
BRANCH   1  13
ATOM     13  C   UNL     1      40.027  -4.552  29.153  1.00  0.00     0.000 C 
BRANCH  13  14
ATOM     14  C   UNL     1      39.763  -3.518  28.048  1.00  0.00     0.000 C 
BRANCH  14  15
ATOM     15  C   UNL     1      39.536  -4.167  26.673  1.00  0.00     0.000 C 
BRANCH  15  16
ATOM     16  C   UNL     1      38.469  -5.268  26.759  1.00  0.00     0.000 C 
BRANCH  16  17
ATOM     17  C   UNL     1      39.051  -6.680  26.575  1.00  0.00     0.000 C 
BRANCH  17  18
ATOM     18  C   UNL     1      38.302  -7.567  25.561  1.00  0.00     0.000 C 
BRANCH  18  19
ATOM     19  C   UNL     1      37.054  -6.897  24.949  1.00  0.00     0.000 C 
BRANCH  19  20
ATOM     20  C   UNL     1      35.745  -7.443  25.548  1.00  0.00     0.006 C 
BRANCH  20  21
ATOM     21  C   UNL     1      34.686  -7.721  24.474  1.00  0.00     0.053 C 
BRANCH  21  22
ATOM     22  C   UNL     1      33.516  -6.791  24.591  1.00  0.00     0.041 C 
ATOM     23  O   UNL     1      33.380  -5.838  23.779  1.00  0.00    -0.550 OA
ATOM     24  O   UNL     1      32.568  -6.987  25.588  1.00  0.00    -0.550 OA
ENDBRANCH  21  22
ENDBRANCH  20  21
ENDBRANCH  19  20
ENDBRANCH  18  19
ENDBRANCH  17  18
ENDBRANCH  16  17
ENDBRANCH  15  16
ENDBRANCH  14  15
ENDBRANCH  13  14
ENDBRANCH   1  13
TORSDOF 20
ENDMDL
MODEL 3
REMARK VINA RESULT:    -4.953      2.718      4.396
REMARK INTER + INTRA:         -13.359
REMARK INTER:                 -11.706
REMARK INTRA:                  -1.652
REMARK UNBOUND:                -2.614
REMARK SMILES CCCCCCCCCCCCCCCCCCCCCC(=O)[O-]
REMARK SMILES IDX 12 1 11 2 10 3 9 4 8 5 7 6 6 7 5 8 4 9 3 10 2 11 1 12 13 13
REMARK SMILES IDX 14 14 15 15 16 16 17 17 18 18 19 19 20 20 21 21 22 22 23 23
REMARK SMILES IDX 24 24
REMARK H PARENT
REMARK Flexibility Score: inf
ROOT
ATOM      1  C   UNL     1      41.878  -5.494  28.561  1.00  0.00     0.000 C 
ENDROOT
BRANCH   1   2
ATOM      2  C   UNL     1      40.868  -4.564  29.243  1.00  0.00     0.000 C 
BRANCH   2   3
ATOM      3  C   UNL     1      39.901  -3.953  28.221  1.00  0.00     0.000 C 
BRANCH   3   4
ATOM      4  C   UNL     1      38.444  -4.404  28.433  1.00  0.00    -0.000 C 
BRANCH   4   5
ATOM      5  C   UNL     1      37.739  -4.838  27.131  1.00  0.00    -0.000 C 
BRANCH   5   6
ATOM      6  C   UNL     1      38.739  -5.160  26.007  1.00  0.00    -0.000 C 
BRANCH   6   7
ATOM      7  C   UNL     1      38.495  -6.537  25.362  1.00  0.00    -0.000 C 
BRANCH   7   8
ATOM      8  C   UNL     1      37.106  -7.140  25.632  1.00  0.00    -0.000 C 
BRANCH   8   9
ATOM      9  C   UNL     1      36.222  -7.192  24.376  1.00  0.00    -0.000 C 
BRANCH   9  10
ATOM     10  C   UNL     1      34.740  -7.330  24.755  1.00  0.00    -0.000 C 
BRANCH  10  11
ATOM     11  C   UNL     1      34.541  -7.775  26.213  1.00  0.00    -0.003 C 
ATOM     12  C   UNL     1      34.031  -9.211  26.329  1.00  0.00     0.004 C 
ENDBRANCH  10  11
ENDBRANCH   9  10
ENDBRANCH   8   9
ENDBRANCH   7   8
ENDBRANCH   6   7
ENDBRANCH   5   6
ENDBRANCH   4   5
ENDBRANCH   3   4
ENDBRANCH   2   3
ENDBRANCH   1   2
BRANCH   1  13
ATOM     13  C   UNL     1      42.165  -5.028  27.126  1.00  0.00     0.000 C 
BRANCH  13  14
ATOM     14  C   UNL     1      43.582  -5.392  26.654  1.00  0.00     0.000 C 
BRANCH  14  15
ATOM     15  C   UNL     1      44.629  -5.265  27.772  1.00  0.00     0.000 C 
BRANCH  15  16
ATOM     16  C   UNL     1      45.941  -5.956  27.372  1.00  0.00     0.000 C 
BRANCH  16  17
ATOM     17  C   UNL     1      45.714  -7.277  26.618  1.00  0.00     0.000 C 
BRANCH  17  18
ATOM     18  C   UNL     1      46.621  -7.491  25.390  1.00  0.00     0.000 C 
BRANCH  18  19
ATOM     19  C   UNL     1      48.034  -6.889  25.545  1.00  0.00     0.000 C 
BRANCH  19  20
ATOM     20  C   UNL     1      48.958  -7.257  24.371  1.00  0.00     0.006 C 
BRANCH  20  21
ATOM     21  C   UNL     1      48.452  -6.699  23.035  1.00  0.00     0.053 C 
BRANCH  21  22
ATOM     22  C   UNL     1      48.201  -7.786  22.035  1.00  0.00     0.041 C 
ATOM     23  O   UNL     1      47.037  -8.240  21.870  1.00  0.00    -0.550 OA
ATOM     24  O   UNL     1      49.249  -8.287  21.273  1.00  0.00    -0.550 OA
ENDBRANCH  21  22
ENDBRANCH  20  21
ENDBRANCH  19  20
ENDBRANCH  18  19
ENDBRANCH  17  18
ENDBRANCH  16  17
ENDBRANCH  15  16
ENDBRANCH  14  15
ENDBRANCH  13  14
ENDBRANCH   1  13
TORSDOF 20
ENDMDL
MODEL 4
REMARK VINA RESULT:    -4.912      4.385      9.179
REMARK INTER + INTRA:         -13.270
REMARK INTER:                 -11.615
REMARK INTRA:                  -1.654
REMARK UNBOUND:                -2.614
REMARK SMILES CCCCCCCCCCCCCCCCCCCCCC(=O)[O-]
REMARK SMILES IDX 12 1 11 2 10 3 9 4 8 5 7 6 6 7 5 8 4 9 3 10 2 11 1 12 13 13
REMARK SMILES IDX 14 14 15 15 16 16 17 17 18 18 19 19 20 20 21 21 22 22 23 23
REMARK SMILES IDX 24 24
REMARK H PARENT
REMARK Flexibility Score: inf
ROOT
ATOM      1  C   UNL     1      43.724  -3.975  28.444  1.00  0.00     0.000 C 
ENDROOT
BRANCH   1   2
ATOM      2  C   UNL     1      44.217  -5.379  28.072  1.00  0.00     0.000 C 
BRANCH   2   3
ATOM      3  C   UNL     1      45.613  -5.325  27.439  1.00  0.00     0.000 C 
BRANCH   3   4
ATOM      4  C   UNL     1      45.653  -5.944  26.029  1.00  0.00    -0.000 C 
BRANCH   4   5
ATOM      5  C   UNL     1      45.218  -7.424  25.994  1.00  0.00    -0.000 C 
BRANCH   5   6
ATOM      6  C   UNL     1      45.423  -8.057  24.606  1.00  0.00    -0.000 C 
BRANCH   6   7
ATOM      7  C   UNL     1      46.079  -7.096  23.598  1.00  0.00    -0.000 C 
BRANCH   7   8
ATOM      8  C   UNL     1      46.938  -7.778  22.519  1.00  0.00    -0.000 C 
BRANCH   8   9
ATOM      9  C   UNL     1      48.438  -7.487  22.675  1.00  0.00    -0.000 C 
BRANCH   9  10
ATOM     10  C   UNL     1      48.853  -7.526  24.152  1.00  0.00    -0.000 C 
BRANCH  10  11
ATOM     11  C   UNL     1      49.270  -6.147  24.687  1.00  0.00    -0.003 C 
ATOM     12  C   UNL     1      50.432  -6.222  25.677  1.00  0.00     0.004 C 
ENDBRANCH  10  11
ENDBRANCH   9  10
ENDBRANCH   8   9
ENDBRANCH   7   8
ENDBRANCH   6   7
ENDBRANCH   5   6
ENDBRANCH   4   5
ENDBRANCH   3   4
ENDBRANCH   2   3
ENDBRANCH   1   2
BRANCH   1  13
ATOM     13  C   UNL     1      42.201  -3.871  28.280  1.00  0.00     0.000 C 
BRANCH  13  14
ATOM     14  C   UNL     1      41.608  -5.038  27.476  1.00  0.00     0.000 C 
BRANCH  14  15
ATOM     15  C   UNL     1      40.503  -5.782  28.242  1.00  0.00     0.000 C 
BRANCH  15  16
ATOM     16  C   UNL     1      39.442  -6.329  27.274  1.00  0.00     0.000 C 
BRANCH  16  17
ATOM     17  C   UNL     1      39.119  -5.355  26.129  1.00  0.00     0.000 C 
BRANCH  17  18
ATOM     18  C   UNL     1      38.340  -5.970  24.950  1.00  0.00     0.000 C 
BRANCH  18  19
ATOM     19  C   UNL     1      37.705  -7.340  25.269  1.00  0.00     0.000 C 
BRANCH  19  20
ATOM     20  C   UNL     1      36.182  -7.345  25.043  1.00  0.00     0.006 C 
BRANCH  20  21
ATOM     21  C   UNL     1      35.402  -7.077  26.336  1.00  0.00     0.053 C 
BRANCH  21  22
ATOM     22  C   UNL     1      35.655  -8.133  27.369  1.00  0.00     0.041 C 
ATOM     23  O   UNL     1      35.285  -9.320  27.167  1.00  0.00    -0.550 OA
ATOM     24  O   UNL     1      36.313  -7.809  28.549  1.00  0.00    -0.550 OA
ENDBRANCH  21  22
ENDBRANCH  20  21
ENDBRANCH  19  20
ENDBRANCH  18  19
ENDBRANCH  17  18
ENDBRANCH  16  17
ENDBRANCH  15  16
ENDBRANCH  14  15
ENDBRANCH  13  14
ENDBRANCH   1  13
TORSDOF 20
ENDMDL
MODEL 5
REMARK VINA RESULT:    -4.911      1.998      3.836
REMARK INTER + INTRA:         -13.268
REMARK INTER:                 -11.208
REMARK INTRA:                  -2.060
REMARK UNBOUND:                -2.614
REMARK SMILES CCCCCCCCCCCCCCCCCCCCCC(=O)[O-]
REMARK SMILES IDX 12 1 11 2 10 3 9 4 8 5 7 6 6 7 5 8 4 9 3 10 2 11 1 12 13 13
REMARK SMILES IDX 14 14 15 15 16 16 17 17 18 18 19 19 20 20 21 21 22 22 23 23
REMARK SMILES IDX 24 24
REMARK H PARENT
REMARK Flexibility Score: inf
ROOT
ATOM      1  C   UNL     1      42.798  -5.860  28.849  1.00  0.00     0.000 C 
ENDROOT
BRANCH   1   2
ATOM      2  C   UNL     1      41.641  -5.183  29.593  1.00  0.00     0.000 C 
BRANCH   2   3
ATOM      3  C   UNL     1      41.221  -3.882  28.897  1.00  0.00     0.000 C 
BRANCH   3   4
ATOM      4  C   UNL     1      39.872  -4.004  28.165  1.00  0.00    -0.000 C 
BRANCH   4   5
ATOM      5  C   UNL     1      40.014  -4.214  26.643  1.00  0.00    -0.000 C 
BRANCH   5   6
ATOM      6  C   UNL     1      39.002  -5.239  26.100  1.00  0.00    -0.000 C 
BRANCH   6   7
ATOM      7  C   UNL     1      39.322  -6.683  26.527  1.00  0.00    -0.000 C 
BRANCH   7   8
ATOM      8  C   UNL     1      38.294  -7.734  26.075  1.00  0.00    -0.000 C 
BRANCH   8   9
ATOM      9  C   UNL     1      37.076  -7.822  27.008  1.00  0.00    -0.000 C 
BRANCH   9  10
ATOM     10  C   UNL     1      35.767  -7.752  26.208  1.00  0.00    -0.000 C 
BRANCH  10  11
ATOM     11  C   UNL     1      35.950  -7.099  24.830  1.00  0.00    -0.003 C 
ATOM     12  C   UNL     1      34.662  -7.083  24.006  1.00  0.00     0.004 C 
ENDBRANCH  10  11
ENDBRANCH   9  10
ENDBRANCH   8   9
ENDBRANCH   7   8
ENDBRANCH   6   7
ENDBRANCH   5   6
ENDBRANCH   4   5
ENDBRANCH   3   4
ENDBRANCH   2   3
ENDBRANCH   1   2
BRANCH   1  13
ATOM     13  C   UNL     1      43.514  -4.859  27.931  1.00  0.00     0.000 C 
BRANCH  13  14
ATOM     14  C   UNL     1      44.004  -5.496  26.622  1.00  0.00     0.000 C 
BRANCH  14  15
ATOM     15  C   UNL     1      45.505  -5.825  26.650  1.00  0.00     0.000 C 
BRANCH  15  16
ATOM     16  C   UNL     1      45.735  -7.337  26.506  1.00  0.00     0.000 C 
BRANCH  16  17
ATOM     17  C   UNL     1      45.432  -7.855  25.090  1.00  0.00     0.000 C 
BRANCH  17  18
ATOM     18  C   UNL     1      46.111  -7.071  23.950  1.00  0.00     0.000 C 
BRANCH  18  19
ATOM     19  C   UNL     1      47.394  -7.739  23.412  1.00  0.00     0.000 C 
BRANCH  19  20
ATOM     20  C   UNL     1      48.570  -6.751  23.314  1.00  0.00     0.006 C 
BRANCH  20  21
ATOM     21  C   UNL     1      48.382  -5.530  24.223  1.00  0.00     0.053 C 
BRANCH  21  22
ATOM     22  C   UNL     1      49.194  -5.638  25.478  1.00  0.00     0.041 C 
ATOM     23  O   UNL     1      48.949  -4.886  26.459  1.00  0.00    -0.550 OA
ATOM     24  O   UNL     1      50.210  -6.580  25.570  1.00  0.00    -0.550 OA
ENDBRANCH  21  22
ENDBRANCH  20  21
ENDBRANCH  19  20
ENDBRANCH  18  19
ENDBRANCH  17  18
ENDBRANCH  16  17
ENDBRANCH  15  16
ENDBRANCH  14  15
ENDBRANCH  13  14
ENDBRANCH   1  13
TORSDOF 20
ENDMDL
MODEL 6
REMARK VINA RESULT:    -4.895      4.149      9.434
REMARK INTER + INTRA:         -13.233
REMARK INTER:                 -11.385
REMARK INTRA:                  -1.848
REMARK UNBOUND:                -2.614
REMARK SMILES CCCCCCCCCCCCCCCCCCCCCC(=O)[O-]
REMARK SMILES IDX 12 1 11 2 10 3 9 4 8 5 7 6 6 7 5 8 4 9 3 10 2 11 1 12 13 13
REMARK SMILES IDX 14 14 15 15 16 16 17 17 18 18 19 19 20 20 21 21 22 22 23 23
REMARK SMILES IDX 24 24
REMARK H PARENT
REMARK Flexibility Score: inf
ROOT
ATOM      1  C   UNL     1      43.793  -2.330  29.156  1.00  0.00     0.000 C 
ENDROOT
BRANCH   1   2
ATOM      2  C   UNL     1      43.085  -3.688  29.104  1.00  0.00     0.000 C 
BRANCH   2   3
ATOM      3  C   UNL     1      43.922  -4.720  28.337  1.00  0.00     0.000 C 
BRANCH   3   4
ATOM      4  C   UNL     1      45.269  -4.155  27.852  1.00  0.00    -0.000 C 
BRANCH   4   5
ATOM      5  C   UNL     1      45.959  -5.035  26.789  1.00  0.00    -0.000 C 
BRANCH   5   6
ATOM      6  C   UNL     1      45.542  -6.513  26.897  1.00  0.00    -0.000 C 
BRANCH   6   7
ATOM      7  C   UNL     1      46.460  -7.455  26.100  1.00  0.00    -0.000 C 
BRANCH   7   8
ATOM      8  C   UNL     1      46.458  -7.227  24.578  1.00  0.00    -0.000 C 
BRANCH   8   9
ATOM      9  C   UNL     1      47.866  -7.260  23.965  1.00  0.00    -0.000 C 
BRANCH   9  10
ATOM     10  C   UNL     1      48.894  -7.780  24.980  1.00  0.00    -0.000 C 
BRANCH  10  11
ATOM     11  C   UNL     1      50.048  -6.792  25.212  1.00  0.00    -0.003 C 
ATOM     12  C   UNL     1      49.563  -5.398  25.612  1.00  0.00     0.004 C 
ENDBRANCH  10  11
ENDBRANCH   9  10
ENDBRANCH   8   9
ENDBRANCH   7   8
ENDBRANCH   6   7
ENDBRANCH   5   6
ENDBRANCH   4   5
ENDBRANCH   3   4
ENDBRANCH   2   3
ENDBRANCH   1   2
BRANCH   1  13
ATOM     13  C   UNL     1      43.014  -1.342  30.035  1.00  0.00     0.000 C 
BRANCH  13  14
ATOM     14  C   UNL     1      42.390  -2.009  31.271  1.00  0.00     0.000 C 
BRANCH  14  15
ATOM     15  C   UNL     1      43.372  -2.108  32.449  1.00  0.00     0.000 C 
BRANCH  15  16
ATOM     16  C   UNL     1      42.626  -2.030  33.790  1.00  0.00     0.000 C 
BRANCH  16  17
ATOM     17  C   UNL     1      42.972  -0.765  34.593  1.00  0.00     0.000 C 
BRANCH  17  18
ATOM     18  C   UNL     1      42.981   0.543  33.777  1.00  0.00     0.000 C 
BRANCH  18  19
ATOM     19  C   UNL     1      44.360   1.233  33.719  1.00  0.00     0.000 C 
BRANCH  19  20
ATOM     20  C   UNL     1      44.358   2.467  32.799  1.00  0.00     0.006 C 
BRANCH  20  21
ATOM     21  C   UNL     1      43.989   2.114  31.353  1.00  0.00     0.053 C 
BRANCH  21  22
ATOM     22  C   UNL     1      42.956   3.047  30.797  1.00  0.00     0.041 C 
ATOM     23  O   UNL     1      43.213   3.746  29.781  1.00  0.00    -0.550 OA
ATOM     24  O   UNL     1      41.703   3.131  31.391  1.00  0.00    -0.550 OA
ENDBRANCH  21  22
ENDBRANCH  20  21
ENDBRANCH  19  20
ENDBRANCH  18  19
ENDBRANCH  17  18
ENDBRANCH  16  17
ENDBRANCH  15  16
ENDBRANCH  14  15
ENDBRANCH  13  14
ENDBRANCH   1  13
TORSDOF 20
ENDMDL
MODEL 7
REMARK VINA RESULT:    -4.861      3.149      8.195
REMARK INTER + INTRA:         -13.158
REMARK INTER:                 -10.859
REMARK INTRA:                  -2.300
REMARK UNBOUND:                -2.614
REMARK SMILES CCCCCCCCCCCCCCCCCCCCCC(=O)[O-]
REMARK SMILES IDX 12 1 11 2 10 3 9 4 8 5 7 6 6 7 5 8 4 9 3 10 2 11 1 12 13 13
REMARK SMILES IDX 14 14 15 15 16 16 17 17 18 18 19 19 20 20 21 21 22 22 23 23
REMARK SMILES IDX 24 24
REMARK H PARENT
REMARK Flexibility Score: inf
ROOT
ATOM      1  C   UNL     1      43.477  -3.554  28.349  1.00  0.00     0.000 C 
ENDROOT
BRANCH   1   2
ATOM      2  C   UNL     1      44.349  -4.813  28.269  1.00  0.00     0.000 C 
BRANCH   2   3
ATOM      3  C   UNL     1      45.636  -4.545  27.477  1.00  0.00     0.000 C 
BRANCH   3   4
ATOM      4  C   UNL     1      45.848  -5.546  26.326  1.00  0.00    -0.000 C 
BRANCH   4   5
ATOM      5  C   UNL     1      45.264  -6.945  26.612  1.00  0.00    -0.000 C 
BRANCH   5   6
ATOM      6  C   UNL     1      45.578  -7.948  25.487  1.00  0.00    -0.000 C 
BRANCH   6   7
ATOM      7  C   UNL     1      45.697  -7.280  24.105  1.00  0.00    -0.000 C 
BRANCH   7   8
ATOM      8  C   UNL     1      46.835  -7.821  23.222  1.00  0.00    -0.000 C 
BRANCH   8   9
ATOM      9  C   UNL     1      47.774  -6.718  22.712  1.00  0.00    -0.000 C 
BRANCH   9  10
ATOM     10  C   UNL     1      48.509  -6.042  23.878  1.00  0.00    -0.000 C 
BRANCH  10  11
ATOM     11  C   UNL     1      49.317  -7.037  24.725  1.00  0.00    -0.003 C 
ATOM     12  C   UNL     1      50.379  -6.355  25.588  1.00  0.00     0.004 C 
ENDBRANCH  10  11
ENDBRANCH   9  10
ENDBRANCH   8   9
ENDBRANCH   7   8
ENDBRANCH   6   7
ENDBRANCH   5   6
ENDBRANCH   4   5
ENDBRANCH   3   4
ENDBRANCH   2   3
ENDBRANCH   1   2
BRANCH   1  13
ATOM     13  C   UNL     1      44.276  -2.374  28.920  1.00  0.00     0.000 C 
BRANCH  13  14
ATOM     14  C   UNL     1      43.441  -1.487  29.857  1.00  0.00     0.000 C 
BRANCH  14  15
ATOM     15  C   UNL     1      41.935  -1.777  29.758  1.00  0.00     0.000 C 
BRANCH  15  16
ATOM     16  C   UNL     1      41.428  -2.471  31.031  1.00  0.00     0.000 C 
BRANCH  16  17
ATOM     17  C   UNL     1      40.012  -3.048  30.873  1.00  0.00     0.000 C 
BRANCH  17  18
ATOM     18  C   UNL     1      39.834  -4.025  29.693  1.00  0.00     0.000 C 
BRANCH  18  19
ATOM     19  C   UNL     1      40.631  -5.337  29.844  1.00  0.00     0.000 C 
BRANCH  19  20
ATOM     20  C   UNL     1      40.612  -6.184  28.559  1.00  0.00     0.006 C 
BRANCH  20  21
ATOM     21  C   UNL     1      40.495  -5.322  27.296  1.00  0.00     0.053 C 
BRANCH  21  22
ATOM     22  C   UNL     1      39.298  -5.694  26.475  1.00  0.00     0.041 C 
ATOM     23  O   UNL     1      38.539  -4.798  26.016  1.00  0.00    -0.550 OA
ATOM     24  O   UNL     1      39.029  -7.029  26.202  1.00  0.00    -0.550 OA
ENDBRANCH  21  22
ENDBRANCH  20  21
ENDBRANCH  19  20
ENDBRANCH  18  19
ENDBRANCH  17  18
ENDBRANCH  16  17
ENDBRANCH  15  16
ENDBRANCH  14  15
ENDBRANCH  13  14
ENDBRANCH   1  13
TORSDOF 20
ENDMDL
MODEL 8
REMARK VINA RESULT:    -4.849      2.833      5.304
REMARK INTER + INTRA:         -13.132
REMARK INTER:                 -11.121
REMARK INTRA:                  -2.011
REMARK UNBOUND:                -2.614
REMARK SMILES CCCCCCCCCCCCCCCCCCCCCC(=O)[O-]
REMARK SMILES IDX 12 1 11 2 10 3 9 4 8 5 7 6 6 7 5 8 4 9 3 10 2 11 1 12 13 13
REMARK SMILES IDX 14 14 15 15 16 16 17 17 18 18 19 19 20 20 21 21 22 22 23 23
REMARK SMILES IDX 24 24
REMARK H PARENT
REMARK Flexibility Score: inf
ROOT
ATOM      1  C   UNL     1      40.272  -5.393  27.867  1.00  0.00     0.000 C 
ENDROOT
BRANCH   1   2
ATOM      2  C   UNL     1      39.555  -6.536  27.140  1.00  0.00     0.000 C 
BRANCH   2   3
ATOM      3  C   UNL     1      38.668  -6.001  26.008  1.00  0.00     0.000 C 
BRANCH   3   4
ATOM      4  C   UNL     1      38.119  -7.118  25.101  1.00  0.00    -0.000 C 
BRANCH   4   5
ATOM      5  C   UNL     1      36.579  -7.139  25.014  1.00  0.00    -0.000 C 
BRANCH   5   6
ATOM      6  C   UNL     1      35.916  -6.688  26.327  1.00  0.00    -0.000 C 
BRANCH   6   7
ATOM      7  C   UNL     1      34.584  -7.406  26.605  1.00  0.00    -0.000 C 
BRANCH   7   8
ATOM      8  C   UNL     1      34.647  -8.941  26.522  1.00  0.00    -0.000 C 
BRANCH   8   9
ATOM      9  C   UNL     1      34.698  -9.614  27.902  1.00  0.00    -0.000 C 
BRANCH   9  10
ATOM     10  C   UNL     1      36.013 -10.384  28.089  1.00  0.00    -0.000 C 
BRANCH  10  11
ATOM     11  C   UNL     1      37.234  -9.455  28.182  1.00  0.00    -0.003 C 
ATOM     12  C   UNL     1      38.513 -10.103  27.651  1.00  0.00     0.004 C 
ENDBRANCH  10  11
ENDBRANCH   9  10
ENDBRANCH   8   9
ENDBRANCH   7   8
ENDBRANCH   6   7
ENDBRANCH   5   6
ENDBRANCH   4   5
ENDBRANCH   3   4
ENDBRANCH   2   3
ENDBRANCH   1   2
BRANCH   1  13
ATOM     13  C   UNL     1      41.355  -4.772  26.973  1.00  0.00     0.000 C 
BRANCH  13  14
ATOM     14  C   UNL     1      42.579  -4.290  27.768  1.00  0.00     0.000 C 
BRANCH  14  15
ATOM     15  C   UNL     1      43.517  -5.440  28.164  1.00  0.00     0.000 C 
BRANCH  15  16
ATOM     16  C   UNL     1      44.973  -5.106  27.802  1.00  0.00     0.000 C 
BRANCH  16  17
ATOM     17  C   UNL     1      45.265  -5.262  26.301  1.00  0.00     0.000 C 
BRANCH  17  18
ATOM     18  C   UNL     1      44.625  -6.498  25.637  1.00  0.00     0.000 C 
BRANCH  18  19
ATOM     19  C   UNL     1      45.647  -7.472  25.015  1.00  0.00     0.000 C 
BRANCH  19  20
ATOM     20  C   UNL     1      47.021  -7.398  25.707  1.00  0.00     0.006 C 
BRANCH  20  21
ATOM     21  C   UNL     1      48.178  -7.371  24.701  1.00  0.00     0.053 C 
BRANCH  21  22
ATOM     22  C   UNL     1      48.885  -6.050  24.700  1.00  0.00     0.041 C 
ATOM     23  O   UNL     1      49.800  -5.820  25.536  1.00  0.00    -0.550 OA
ATOM     24  O   UNL     1      48.546  -5.078  23.767  1.00  0.00    -0.550 OA
ENDBRANCH  21  22
ENDBRANCH  20  21
ENDBRANCH  19  20
ENDBRANCH  18  19
ENDBRANCH  17  18
ENDBRANCH  16  17
ENDBRANCH  15  16
ENDBRANCH  14  15
ENDBRANCH  13  14
ENDBRANCH   1  13
TORSDOF 20
ENDMDL
MODEL 9
REMARK VINA RESULT:    -4.823      2.286      4.201
REMARK INTER + INTRA:         -13.077
REMARK INTER:                 -11.042
REMARK INTRA:                  -2.036
REMARK UNBOUND:                -2.614
REMARK SMILES CCCCCCCCCCCCCCCCCCCCCC(=O)[O-]
REMARK SMILES IDX 12 1 11 2 10 3 9 4 8 5 7 6 6 7 5 8 4 9 3 10 2 11 1 12 13 13
REMARK SMILES IDX 14 14 15 15 16 16 17 17 18 18 19 19 20 20 21 21 22 22 23 23
REMARK SMILES IDX 24 24
REMARK H PARENT
REMARK Flexibility Score: inf
ROOT
ATOM      1  C   UNL     1      40.751  -2.365  29.902  1.00  0.00     0.000 C 
ENDROOT
BRANCH   1   2
ATOM      2  C   UNL     1      39.482  -3.184  29.646  1.00  0.00     0.000 C 
BRANCH   2   3
ATOM      3  C   UNL     1      39.135  -3.215  28.152  1.00  0.00     0.000 C 
BRANCH   3   4
ATOM      4  C   UNL     1      38.641  -4.595  27.681  1.00  0.00    -0.000 C 
BRANCH   4   5
ATOM      5  C   UNL     1      39.782  -5.557  27.290  1.00  0.00    -0.000 C 
BRANCH   5   6
ATOM      6  C   UNL     1      39.484  -7.010  27.701  1.00  0.00    -0.000 C 
BRANCH   6   7
ATOM      7  C   UNL     1      38.365  -7.654  26.863  1.00  0.00    -0.000 C 
BRANCH   7   8
ATOM      8  C   UNL     1      38.340  -7.232  25.384  1.00  0.00    -0.000 C 
BRANCH   8   9
ATOM      9  C   UNL     1      36.917  -7.028  24.843  1.00  0.00    -0.000 C 
BRANCH   9  10
ATOM     10  C   UNL     1      35.889  -7.050  25.983  1.00  0.00    -0.000 C 
BRANCH  10  11
ATOM     11  C   UNL     1      34.519  -7.582  25.534  1.00  0.00    -0.003 C 
ATOM     12  C   UNL     1      34.162  -7.171  24.106  1.00  0.00     0.004 C 
ENDBRANCH  10  11
ENDBRANCH   9  10
ENDBRANCH   8   9
ENDBRANCH   7   8
ENDBRANCH   6   7
ENDBRANCH   5   6
ENDBRANCH   4   5
ENDBRANCH   3   4
ENDBRANCH   2   3
ENDBRANCH   1   2
BRANCH   1  13
ATOM     13  C   UNL     1      41.877  -2.792  28.950  1.00  0.00     0.000 C 
BRANCH  13  14
ATOM     14  C   UNL     1      43.004  -3.554  29.665  1.00  0.00     0.000 C 
BRANCH  14  15
ATOM     15  C   UNL     1      42.899  -5.076  29.479  1.00  0.00     0.000 C 
BRANCH  15  16
ATOM     16  C   UNL     1      43.392  -5.491  28.084  1.00  0.00     0.000 C 
BRANCH  16  17
ATOM     17  C   UNL     1      44.868  -5.133  27.842  1.00  0.00     0.000 C 
BRANCH  17  18
ATOM     18  C   UNL     1      45.359  -5.338  26.395  1.00  0.00     0.000 C 
BRANCH  18  19
ATOM     19  C   UNL     1      44.615  -6.457  25.636  1.00  0.00     0.000 C 
BRANCH  19  20
ATOM     20  C   UNL     1      45.564  -7.569  25.156  1.00  0.00     0.006 C 
BRANCH  20  21
ATOM     21  C   UNL     1      46.926  -7.516  25.860  1.00  0.00     0.053 C 
BRANCH  21  22
ATOM     22  C   UNL     1      48.057  -7.442  24.881  1.00  0.00     0.041 C 
ATOM     23  O   UNL     1      49.212  -7.821  25.215  1.00  0.00    -0.550 OA
ATOM     24  O   UNL     1      47.835  -6.970  23.594  1.00  0.00    -0.550 OA
ENDBRANCH  21  22
ENDBRANCH  20  21
ENDBRANCH  19  20
ENDBRANCH  18  19
ENDBRANCH  17  18
ENDBRANCH  16  17
ENDBRANCH  15  16
ENDBRANCH  14  15
ENDBRANCH  13  14
ENDBRANCH   1  13
TORSDOF 20
ENDMDL
