MODEL 1
REMARK VINA RESULT:    -6.320      0.000      0.000
REMARK INTER + INTRA:          -7.866
REMARK INTER:                  -7.613
REMARK INTRA:                  -0.253
REMARK UNBOUND:                -0.253
REMARK SMILES O=c1c(O)c(-c2ccc(O)c(O)c2)oc2cc(O)cc(O)c12
REMARK SMILES IDX 5 1 3 2 2 3 1 4 22 5 20 6 19 7 17 8 16 9 15 10 14 11 6 12
REMARK SMILES IDX 7 13 8 14 9 15 13 16 11 17 10 18 12 20 4 22 21 24 18 26
REMARK H PARENT 10 19 12 21 4 23 21 25 18 27
REMARK Flexibility Score: inf
ROOT
ATOM      1  C   UNL     1      26.670  25.392 -12.926  1.00  0.00     0.180 A 
ATOM      2  C   UNL     1      26.316  25.727 -14.245  1.00  0.00     0.208 A 
ATOM      3  C   UNL     1      26.254  27.081 -14.611  1.00  0.00     0.238 A 
ATOM      4  O   UNL     1      25.884  27.376 -15.777  1.00  0.00    -0.285 OA
ATOM      5  C   UNL     1      26.562  28.082 -13.658  1.00  0.00     0.111 A 
ATOM      6  C   UNL     1      26.570  29.483 -13.930  1.00  0.00     0.134 A 
ATOM      7  C   UNL     1      26.761  30.389 -12.879  1.00  0.00     0.093 A 
ATOM      8  C   UNL     1      27.009  29.944 -11.581  1.00  0.00     0.123 A 
ATOM      9  C   UNL     1      27.062  28.576 -11.315  1.00  0.00     0.094 A 
ATOM     10  C   UNL     1      26.839  27.648 -12.336  1.00  0.00     0.146 A 
ATOM     11  O   UNL     1      26.888  26.355 -12.040  1.00  0.00    -0.452 OA
ENDROOT
BRANCH   1  12
ATOM     12  C   UNL     1      26.781  23.986 -12.474  1.00  0.00     0.025 A 
ATOM     13  C   UNL     1      25.613  23.248 -12.219  1.00  0.00     0.016 A 
ATOM     14  C   UNL     1      25.693  21.928 -11.771  1.00  0.00     0.051 A 
ATOM     15  C   UNL     1      26.943  21.330 -11.556  1.00  0.00     0.157 A 
ATOM     16  C   UNL     1      28.032  23.388 -12.238  1.00  0.00     0.062 A 
ATOM     17  C   UNL     1      28.114  22.063 -11.786  1.00  0.00     0.158 A 
BRANCH  15  18
ATOM     18  O   UNL     1      27.028  20.012 -11.112  1.00  0.00    -0.504 OA
ATOM     19  H   UNL     1      27.809  19.417 -11.361  1.00  0.00     0.293 HD
ENDBRANCH  15  18
BRANCH  17  20
ATOM     20  O   UNL     1      29.354  21.471 -11.559  1.00  0.00    -0.504 OA
ATOM     21  H   UNL     1      29.443  20.613 -11.027  1.00  0.00     0.293 HD
ENDBRANCH  17  20
ENDBRANCH   1  12
BRANCH   2  22
ATOM     22  O   UNL     1      25.995  24.723 -15.163  1.00  0.00    -0.502 OA
ATOM     23  H   UNL     1      26.117  23.738 -14.958  1.00  0.00     0.293 HD
ENDBRANCH   2  22
BRANCH   6  24
ATOM     24  O   UNL     1      26.424  30.031 -15.208  1.00  0.00    -0.507 OA
ATOM     25  H   UNL     1      27.144  30.535 -15.703  1.00  0.00     0.293 HD
ENDBRANCH   6  24
BRANCH   8  26
ATOM     26  O   UNL     1      27.211  30.874 -10.562  1.00  0.00    -0.508 OA
ATOM     27  H   UNL     1      27.898  30.721  -9.834  1.00  0.00     0.293 HD
ENDBRANCH   8  26
TORSDOF 6
ENDMDL
MODEL 2
REMARK VINA RESULT:    -6.027      5.716      7.433
REMARK INTER + INTRA:          -7.513
REMARK INTER:                  -7.223
REMARK INTRA:                  -0.291
REMARK UNBOUND:                -0.253
REMARK SMILES O=c1c(O)c(-c2ccc(O)c(O)c2)oc2cc(O)cc(O)c12
REMARK SMILES IDX 5 1 3 2 2 3 1 4 22 5 20 6 19 7 17 8 16 9 15 10 14 11 6 12
REMARK SMILES IDX 7 13 8 14 9 15 13 16 11 17 10 18 12 20 4 22 21 24 18 26
REMARK H PARENT 10 19 12 21 4 23 21 25 18 27
REMARK Flexibility Score: inf
ROOT
ATOM      1  C   UNL     1      24.230  30.771 -11.538  1.00  0.00     0.180 A 
ATOM      2  C   UNL     1      24.069  30.924 -12.926  1.00  0.00     0.208 A 
ATOM      3  C   UNL     1      25.198  30.843 -13.757  1.00  0.00     0.238 A 
ATOM      4  O   UNL     1      25.054  31.036 -14.991  1.00  0.00    -0.285 OA
ATOM      5  C   UNL     1      26.471  30.592 -13.191  1.00  0.00     0.111 A 
ATOM      6  C   UNL     1      27.677  30.450 -13.941  1.00  0.00     0.134 A 
ATOM      7  C   UNL     1      28.899  30.334 -13.268  1.00  0.00     0.093 A 
ATOM      8  C   UNL     1      28.953  30.289 -11.875  1.00  0.00     0.123 A 
ATOM      9  C   UNL     1      27.775  30.368 -11.133  1.00  0.00     0.094 A 
ATOM     10  C   UNL     1      26.543  30.521 -11.775  1.00  0.00     0.146 A 
ATOM     11  O   UNL     1      25.446  30.602 -11.033  1.00  0.00    -0.452 OA
ENDROOT
BRANCH   1  12
ATOM     12  C   UNL     1      23.084  30.819 -10.602  1.00  0.00     0.025 A 
ATOM     13  C   UNL     1      22.512  29.619 -10.147  1.00  0.00     0.016 A 
ATOM     14  C   UNL     1      21.417  29.641  -9.280  1.00  0.00     0.051 A 
ATOM     15  C   UNL     1      20.867  30.862  -8.867  1.00  0.00     0.157 A 
ATOM     16  C   UNL     1      22.517  32.042 -10.199  1.00  0.00     0.062 A 
ATOM     17  C   UNL     1      21.416  32.064  -9.331  1.00  0.00     0.158 A 
BRANCH  15  18
ATOM     18  O   UNL     1      19.777  30.888  -8.000  1.00  0.00    -0.504 OA
ATOM     19  H   UNL     1      19.898  30.891  -6.995  1.00  0.00     0.293 HD
ENDBRANCH  15  18
BRANCH  17  20
ATOM     20  O   UNL     1      20.860  33.277  -8.929  1.00  0.00    -0.504 OA
ATOM     21  H   UNL     1      20.209  33.331  -8.153  1.00  0.00     0.293 HD
ENDBRANCH  17  20
ENDBRANCH   1  12
BRANCH   2  22
ATOM     22  O   UNL     1      22.806  31.193 -13.461  1.00  0.00    -0.502 OA
ATOM     23  H   UNL     1      22.649  31.924 -14.145  1.00  0.00     0.293 HD
ENDBRANCH   2  22
BRANCH   6  24
ATOM     24  O   UNL     1      27.725  30.389 -15.337  1.00  0.00    -0.507 OA
ATOM     25  H   UNL     1      28.550  30.554 -15.892  1.00  0.00     0.293 HD
ENDBRANCH   6  24
BRANCH   8  26
ATOM     26  O   UNL     1      30.186  30.157 -11.239  1.00  0.00    -0.508 OA
ATOM     27  H   UNL     1      30.597  30.920 -10.715  1.00  0.00     0.293 HD
ENDBRANCH   8  26
TORSDOF 6
ENDMDL
MODEL 3
REMARK VINA RESULT:    -5.927      5.521      7.026
REMARK INTER + INTRA:          -7.393
REMARK INTER:                  -7.329
REMARK INTRA:                  -0.063
REMARK UNBOUND:                -0.253
REMARK SMILES O=c1c(O)c(-c2ccc(O)c(O)c2)oc2cc(O)cc(O)c12
REMARK SMILES IDX 5 1 3 2 2 3 1 4 22 5 20 6 19 7 17 8 16 9 15 10 14 11 6 12
REMARK SMILES IDX 7 13 8 14 9 15 13 16 11 17 10 18 12 20 4 22 21 24 18 26
REMARK H PARENT 10 19 12 21 4 23 21 25 18 27
REMARK Flexibility Score: inf
ROOT
ATOM      1  C   UNL     1      25.293  30.522 -13.610  1.00  0.00     0.180 A 
ATOM      2  C   UNL     1      24.984  31.477 -14.594  1.00  0.00     0.208 A 
ATOM      3  C   UNL     1      23.711  31.460 -15.186  1.00  0.00     0.238 A 
ATOM      4  O   UNL     1      23.460  32.282 -16.104  1.00  0.00    -0.285 OA
ATOM      5  C   UNL     1      22.757  30.499 -14.774  1.00  0.00     0.111 A 
ATOM      6  C   UNL     1      21.424  30.414 -15.276  1.00  0.00     0.134 A 
ATOM      7  C   UNL     1      20.608  29.342 -14.893  1.00  0.00     0.093 A 
ATOM      8  C   UNL     1      21.053  28.390 -13.977  1.00  0.00     0.123 A 
ATOM      9  C   UNL     1      22.334  28.496 -13.434  1.00  0.00     0.094 A 
ATOM     10  C   UNL     1      23.184  29.534 -13.825  1.00  0.00     0.146 A 
ATOM     11  O   UNL     1      24.399  29.593 -13.293  1.00  0.00    -0.452 OA
ENDROOT
BRANCH   1  12
ATOM     12  C   UNL     1      26.604  30.494 -12.924  1.00  0.00     0.025 A 
ATOM     13  C   UNL     1      27.777  30.335 -13.681  1.00  0.00     0.016 A 
ATOM     14  C   UNL     1      29.024  30.284 -13.053  1.00  0.00     0.051 A 
ATOM     15  C   UNL     1      29.116  30.375 -11.658  1.00  0.00     0.157 A 
ATOM     16  C   UNL     1      26.701  30.564 -11.522  1.00  0.00     0.062 A 
ATOM     17  C   UNL     1      27.952  30.511 -10.891  1.00  0.00     0.158 A 
BRANCH  15  18
ATOM     18  O   UNL     1      30.358  30.327 -11.028  1.00  0.00    -0.504 OA
ATOM     19  H   UNL     1      30.473  30.605 -10.061  1.00  0.00     0.293 HD
ENDBRANCH  15  18
BRANCH  17  20
ATOM     20  O   UNL     1      28.045  30.587  -9.503  1.00  0.00    -0.504 OA
ATOM     21  H   UNL     1      28.807  30.149  -8.997  1.00  0.00     0.293 HD
ENDBRANCH  17  20
ENDBRANCH   1  12
BRANCH   2  22
ATOM     22  O   UNL     1      25.949  32.403 -15.001  1.00  0.00    -0.502 OA
ATOM     23  H   UNL     1      26.360  32.389 -15.928  1.00  0.00     0.293 HD
ENDBRANCH   2  22
BRANCH   6  24
ATOM     24  O   UNL     1      20.848  31.365 -16.125  1.00  0.00    -0.507 OA
ATOM     25  H   UNL     1      21.072  32.347 -16.124  1.00  0.00     0.293 HD
ENDBRANCH   6  24
BRANCH   8  26
ATOM     26  O   UNL     1      20.208  27.345 -13.606  1.00  0.00    -0.508 OA
ATOM     27  H   UNL     1      20.236  26.448 -14.076  1.00  0.00     0.293 HD
ENDBRANCH   8  26
TORSDOF 6
ENDMDL
MODEL 4
REMARK VINA RESULT:    -5.732     15.040     17.218
REMARK INTER + INTRA:          -7.158
REMARK INTER:                  -6.835
REMARK INTRA:                  -0.322
REMARK UNBOUND:                -0.253
REMARK SMILES O=c1c(O)c(-c2ccc(O)c(O)c2)oc2cc(O)cc(O)c12
REMARK SMILES IDX 5 1 3 2 2 3 1 4 22 5 20 6 19 7 17 8 16 9 15 10 14 11 6 12
REMARK SMILES IDX 7 13 8 14 9 15 13 16 11 17 10 18 12 20 4 22 21 24 18 26
REMARK H PARENT 10 19 12 21 4 23 21 25 18 27
REMARK Flexibility Score: inf
ROOT
ATOM      1  C   UNL     1      21.246  19.341   0.982  1.00  0.00     0.180 A 
ATOM      2  C   UNL     1      22.051  19.716   2.071  1.00  0.00     0.208 A 
ATOM      3  C   UNL     1      23.407  19.352   2.075  1.00  0.00     0.238 A 
ATOM      4  O   UNL     1      24.108  19.644   3.078  1.00  0.00    -0.285 OA
ATOM      5  C   UNL     1      23.945  18.633   0.981  1.00  0.00     0.111 A 
ATOM      6  C   UNL     1      25.314  18.247   0.860  1.00  0.00     0.134 A 
ATOM      7  C   UNL     1      25.709  17.424  -0.202  1.00  0.00     0.093 A 
ATOM      8  C   UNL     1      24.800  17.028  -1.182  1.00  0.00     0.123 A 
ATOM      9  C   UNL     1      23.472  17.448  -1.106  1.00  0.00     0.094 A 
ATOM     10  C   UNL     1      23.039  18.239  -0.038  1.00  0.00     0.146 A 
ATOM     11  O   UNL     1      21.766  18.609   0.003  1.00  0.00    -0.452 OA
ENDROOT
BRANCH   1  12
ATOM     12  C   UNL     1      19.815  19.709   0.895  1.00  0.00     0.025 A 
ATOM     13  C   UNL     1      19.453  20.947   0.338  1.00  0.00     0.016 A 
ATOM     14  C   UNL     1      18.109  21.324   0.267  1.00  0.00     0.051 A 
ATOM     15  C   UNL     1      17.110  20.477   0.764  1.00  0.00     0.157 A 
ATOM     16  C   UNL     1      18.810  18.871   1.411  1.00  0.00     0.062 A 
ATOM     17  C   UNL     1      17.461  19.250   1.341  1.00  0.00     0.158 A 
BRANCH  15  18
ATOM     18  O   UNL     1      15.769  20.849   0.691  1.00  0.00    -0.504 OA
ATOM     19  H   UNL     1      15.217  21.009   1.526  1.00  0.00     0.293 HD
ENDBRANCH  15  18
BRANCH  17  20
ATOM     20  O   UNL     1      16.467  18.416   1.847  1.00  0.00    -0.504 OA
ATOM     21  H   UNL     1      16.014  18.607   2.734  1.00  0.00     0.293 HD
ENDBRANCH  17  20
ENDBRANCH   1  12
BRANCH   2  22
ATOM     22  O   UNL     1      21.494  20.407   3.151  1.00  0.00    -0.502 OA
ATOM     23  H   UNL     1      20.561  20.214   3.498  1.00  0.00     0.293 HD
ENDBRANCH   2  22
BRANCH   6  24
ATOM     24  O   UNL     1      26.323  18.665   1.734  1.00  0.00    -0.507 OA
ATOM     25  H   UNL     1      27.031  19.347   1.511  1.00  0.00     0.293 HD
ENDBRANCH   6  24
BRANCH   8  26
ATOM     26  O   UNL     1      25.230  16.222  -2.234  1.00  0.00    -0.508 OA
ATOM     27  H   UNL     1      25.580  16.620  -3.098  1.00  0.00     0.293 HD
ENDBRANCH   8  26
TORSDOF 6
ENDMDL
MODEL 5
REMARK VINA RESULT:    -5.598      2.710      4.231
REMARK INTER + INTRA:          -6.997
REMARK INTER:                  -6.713
REMARK INTRA:                  -0.284
REMARK UNBOUND:                -0.253
REMARK SMILES O=c1c(O)c(-c2ccc(O)c(O)c2)oc2cc(O)cc(O)c12
REMARK SMILES IDX 5 1 3 2 2 3 1 4 22 5 20 6 19 7 17 8 16 9 15 10 14 11 6 12
REMARK SMILES IDX 7 13 8 14 9 15 13 16 11 17 10 18 12 20 4 22 21 24 18 26
REMARK H PARENT 10 19 12 21 4 23 21 25 18 27
REMARK Flexibility Score: inf
ROOT
ATOM      1  C   UNL     1      25.711  28.027 -13.766  1.00  0.00     0.180 A 
ATOM      2  C   UNL     1      26.620  29.100 -13.765  1.00  0.00     0.208 A 
ATOM      3  C   UNL     1      26.185  30.362 -14.201  1.00  0.00     0.238 A 
ATOM      4  O   UNL     1      27.018  31.304 -14.248  1.00  0.00    -0.285 OA
ATOM      5  C   UNL     1      24.844  30.540 -14.615  1.00  0.00     0.111 A 
ATOM      6  C   UNL     1      24.285  31.783 -15.038  1.00  0.00     0.134 A 
ATOM      7  C   UNL     1      22.982  31.816 -15.552  1.00  0.00     0.093 A 
ATOM      8  C   UNL     1      22.197  30.665 -15.597  1.00  0.00     0.123 A 
ATOM      9  C   UNL     1      22.713  29.455 -15.132  1.00  0.00     0.094 A 
ATOM     10  C   UNL     1      24.022  29.383 -14.648  1.00  0.00     0.146 A 
ATOM     11  O   UNL     1      24.478  28.212 -14.224  1.00  0.00    -0.452 OA
ENDROOT
BRANCH   1  12
ATOM     12  C   UNL     1      26.088  26.675 -13.299  1.00  0.00     0.025 A 
ATOM     13  C   UNL     1      26.172  26.419 -11.920  1.00  0.00     0.016 A 
ATOM     14  C   UNL     1      26.547  25.155 -11.456  1.00  0.00     0.051 A 
ATOM     15  C   UNL     1      26.859  24.134 -12.363  1.00  0.00     0.157 A 
ATOM     16  C   UNL     1      26.421  25.651 -14.205  1.00  0.00     0.062 A 
ATOM     17  C   UNL     1      26.800  24.384 -13.739  1.00  0.00     0.158 A 
BRANCH  15  18
ATOM     18  O   UNL     1      27.231  22.872 -11.904  1.00  0.00    -0.504 OA
ATOM     19  H   UNL     1      27.616  22.173 -12.527  1.00  0.00     0.293 HD
ENDBRANCH  15  18
BRANCH  17  20
ATOM     20  O   UNL     1      27.124  23.370 -14.639  1.00  0.00    -0.504 OA
ATOM     21  H   UNL     1      26.936  22.396 -14.431  1.00  0.00     0.293 HD
ENDBRANCH  17  20
ENDBRANCH   1  12
BRANCH   2  22
ATOM     22  O   UNL     1      27.945  28.897 -13.372  1.00  0.00    -0.502 OA
ATOM     23  H   UNL     1      28.197  28.297 -12.594  1.00  0.00     0.293 HD
ENDBRANCH   2  22
BRANCH   6  24
ATOM     24  O   UNL     1      24.951  33.009 -14.948  1.00  0.00    -0.507 OA
ATOM     25  H   UNL     1      24.505  33.894 -14.765  1.00  0.00     0.293 HD
ENDBRANCH   6  24
BRANCH   8  26
ATOM     26  O   UNL     1      20.899  30.737 -16.100  1.00  0.00    -0.508 OA
ATOM     27  H   UNL     1      20.603  31.500 -16.697  1.00  0.00     0.293 HD
ENDBRANCH   8  26
TORSDOF 6
ENDMDL
MODEL 6
REMARK VINA RESULT:    -5.544      2.409      6.788
REMARK INTER + INTRA:          -6.932
REMARK INTER:                  -6.599
REMARK INTRA:                  -0.332
REMARK UNBOUND:                -0.253
REMARK SMILES O=c1c(O)c(-c2ccc(O)c(O)c2)oc2cc(O)cc(O)c12
REMARK SMILES IDX 5 1 3 2 2 3 1 4 22 5 20 6 19 7 17 8 16 9 15 10 14 11 6 12
REMARK SMILES IDX 7 13 8 14 9 15 13 16 11 17 10 18 12 20 4 22 21 24 18 26
REMARK H PARENT 10 19 12 21 4 23 21 25 18 27
REMARK Flexibility Score: inf
ROOT
ATOM      1  C   UNL     1      26.402  26.960 -12.411  1.00  0.00     0.180 A 
ATOM      2  C   UNL     1      26.978  25.815 -12.988  1.00  0.00     0.208 A 
ATOM      3  C   UNL     1      26.961  24.607 -12.271  1.00  0.00     0.238 A 
ATOM      4  O   UNL     1      27.526  23.601 -12.770  1.00  0.00    -0.285 OA
ATOM      5  C   UNL     1      26.353  24.557 -10.994  1.00  0.00     0.111 A 
ATOM      6  C   UNL     1      26.243  23.379 -10.196  1.00  0.00     0.134 A 
ATOM      7  C   UNL     1      25.739  23.471  -8.892  1.00  0.00     0.093 A 
ATOM      8  C   UNL     1      25.282  24.686  -8.382  1.00  0.00     0.123 A 
ATOM      9  C   UNL     1      25.330  25.833  -9.175  1.00  0.00     0.094 A 
ATOM     10  C   UNL     1      25.861  25.779 -10.466  1.00  0.00     0.146 A 
ATOM     11  O   UNL     1      25.898  26.894 -11.184  1.00  0.00    -0.452 OA
ENDROOT
BRANCH   1  12
ATOM     12  C   UNL     1      26.359  28.261 -13.116  1.00  0.00     0.025 A 
ATOM     13  C   UNL     1      27.358  29.216 -12.864  1.00  0.00     0.016 A 
ATOM     14  C   UNL     1      27.327  30.458 -13.502  1.00  0.00     0.051 A 
ATOM     15  C   UNL     1      26.288  30.771 -14.389  1.00  0.00     0.157 A 
ATOM     16  C   UNL     1      25.308  28.586 -13.992  1.00  0.00     0.062 A 
ATOM     17  C   UNL     1      25.275  29.834 -14.632  1.00  0.00     0.158 A 
BRANCH  15  18
ATOM     18  O   UNL     1      26.254  32.007 -15.029  1.00  0.00    -0.504 OA
ATOM     19  H   UNL     1      25.545  32.698 -14.813  1.00  0.00     0.293 HD
ENDBRANCH  15  18
BRANCH  17  20
ATOM     20  O   UNL     1      24.236  30.152 -15.504  1.00  0.00    -0.504 OA
ATOM     21  H   UNL     1      24.028  29.578 -16.313  1.00  0.00     0.293 HD
ENDBRANCH  17  20
ENDBRANCH   1  12
BRANCH   2  22
ATOM     22  O   UNL     1      27.592  25.893 -14.241  1.00  0.00    -0.502 OA
ATOM     23  H   UNL     1      27.066  26.018 -15.098  1.00  0.00     0.293 HD
ENDBRANCH   2  22
BRANCH   6  24
ATOM     24  O   UNL     1      26.585  22.098 -10.642  1.00  0.00    -0.507 OA
ATOM     25  H   UNL     1      26.274  21.690 -11.510  1.00  0.00     0.293 HD
ENDBRANCH   6  24
BRANCH   8  26
ATOM     26  O   UNL     1      24.771  24.739  -7.086  1.00  0.00    -0.508 OA
ATOM     27  H   UNL     1      24.927  23.989  -6.423  1.00  0.00     0.293 HD
ENDBRANCH   8  26
TORSDOF 6
ENDMDL
MODEL 7
REMARK VINA RESULT:    -5.445      2.920      7.505
REMARK INTER + INTRA:          -6.812
REMARK INTER:                  -6.485
REMARK INTRA:                  -0.327
REMARK UNBOUND:                -0.253
REMARK SMILES O=c1c(O)c(-c2ccc(O)c(O)c2)oc2cc(O)cc(O)c12
REMARK SMILES IDX 5 1 3 2 2 3 1 4 22 5 20 6 19 7 17 8 16 9 15 10 14 11 6 12
REMARK SMILES IDX 7 13 8 14 9 15 13 16 11 17 10 18 12 20 4 22 21 24 18 26
REMARK H PARENT 10 19 12 21 4 23 21 25 18 27
REMARK Flexibility Score: inf
ROOT
ATOM      1  C   UNL     1      25.273  28.038 -13.719  1.00  0.00     0.180 A 
ATOM      2  C   UNL     1      26.515  27.403 -13.548  1.00  0.00     0.208 A 
ATOM      3  C   UNL     1      26.647  26.053 -13.915  1.00  0.00     0.238 A 
ATOM      4  O   UNL     1      27.745  25.476 -13.709  1.00  0.00    -0.285 OA
ATOM      5  C   UNL     1      25.540  25.362 -14.464  1.00  0.00     0.111 A 
ATOM      6  C   UNL     1      25.571  24.006 -14.908  1.00  0.00     0.134 A 
ATOM      7  C   UNL     1      24.383  23.384 -15.312  1.00  0.00     0.093 A 
ATOM      8  C   UNL     1      23.179  24.087 -15.350  1.00  0.00     0.123 A 
ATOM      9  C   UNL     1      23.148  25.430 -14.975  1.00  0.00     0.094 A 
ATOM     10  C   UNL     1      24.310  26.068 -14.532  1.00  0.00     0.146 A 
ATOM     11  O   UNL     1      24.237  27.344 -14.174  1.00  0.00    -0.452 OA
ENDROOT
BRANCH   1  12
ATOM     12  C   UNL     1      25.064  29.464 -13.379  1.00  0.00     0.025 A 
ATOM     13  C   UNL     1      24.639  29.810 -12.085  1.00  0.00     0.016 A 
ATOM     14  C   UNL     1      24.415  31.147 -11.748  1.00  0.00     0.051 A 
ATOM     15  C   UNL     1      24.599  32.157 -12.703  1.00  0.00     0.157 A 
ATOM     16  C   UNL     1      25.228  30.479 -14.339  1.00  0.00     0.062 A 
ATOM     17  C   UNL     1      25.002  31.821 -14.001  1.00  0.00     0.158 A 
BRANCH  15  18
ATOM     18  O   UNL     1      24.379  33.492 -12.370  1.00  0.00    -0.504 OA
ATOM     19  H   UNL     1      23.691  34.054 -12.856  1.00  0.00     0.293 HD
ENDBRANCH  15  18
BRANCH  17  20
ATOM     20  O   UNL     1      25.171  32.825 -14.952  1.00  0.00    -0.504 OA
ATOM     21  H   UNL     1      25.059  33.805 -14.716  1.00  0.00     0.293 HD
ENDBRANCH  17  20
ENDBRANCH   1  12
BRANCH   2  22
ATOM     22  O   UNL     1      27.588  28.098 -12.985  1.00  0.00    -0.502 OA
ATOM     23  H   UNL     1      27.999  27.837 -12.095  1.00  0.00     0.293 HD
ENDBRANCH   2  22
BRANCH   6  24
ATOM     24  O   UNL     1      26.738  23.241 -14.997  1.00  0.00    -0.507 OA
ATOM     25  H   UNL     1      26.860  22.448 -15.607  1.00  0.00     0.293 HD
ENDBRANCH   6  24
BRANCH   8  26
ATOM     26  O   UNL     1      22.019  23.441 -15.773  1.00  0.00    -0.508 OA
ATOM     27  H   UNL     1      21.883  23.175 -16.741  1.00  0.00     0.293 HD
ENDBRANCH   8  26
TORSDOF 6
ENDMDL
MODEL 8
REMARK VINA RESULT:    -5.395      1.394      2.865
REMARK INTER + INTRA:          -6.752
REMARK INTER:                  -6.551
REMARK INTRA:                  -0.201
REMARK UNBOUND:                -0.253
REMARK SMILES O=c1c(O)c(-c2ccc(O)c(O)c2)oc2cc(O)cc(O)c12
REMARK SMILES IDX 5 1 3 2 2 3 1 4 22 5 20 6 19 7 17 8 16 9 15 10 14 11 6 12
REMARK SMILES IDX 7 13 8 14 9 15 13 16 11 17 10 18 12 20 4 22 21 24 18 26
REMARK H PARENT 10 19 12 21 4 23 21 25 18 27
REMARK Flexibility Score: inf
ROOT
ATOM      1  C   UNL     1      26.300  25.625 -11.971  1.00  0.00     0.180 A 
ATOM      2  C   UNL     1      26.097  26.220 -10.714  1.00  0.00     0.208 A 
ATOM      3  C   UNL     1      26.065  27.621 -10.620  1.00  0.00     0.238 A 
ATOM      4  O   UNL     1      25.938  28.147  -9.485  1.00  0.00    -0.285 OA
ATOM      5  C   UNL     1      26.219  28.408 -11.787  1.00  0.00     0.111 A 
ATOM      6  C   UNL     1      26.163  29.833 -11.815  1.00  0.00     0.134 A 
ATOM      7  C   UNL     1      26.459  30.513 -13.003  1.00  0.00     0.093 A 
ATOM      8  C   UNL     1      26.745  29.818 -14.178  1.00  0.00     0.123 A 
ATOM      9  C   UNL     1      26.744  28.424 -14.176  1.00  0.00     0.094 A 
ATOM     10  C   UNL     1      26.488  27.717 -12.998  1.00  0.00     0.146 A 
ATOM     11  O   UNL     1      26.507  26.391 -13.035  1.00  0.00    -0.452 OA
ENDROOT
BRANCH   1  12
ATOM     12  C   UNL     1      26.322  24.156 -12.153  1.00  0.00     0.025 A 
ATOM     13  C   UNL     1      25.252  23.525 -12.809  1.00  0.00     0.016 A 
ATOM     14  C   UNL     1      25.241  22.137 -12.973  1.00  0.00     0.051 A 
ATOM     15  C   UNL     1      26.292  21.358 -12.470  1.00  0.00     0.157 A 
ATOM     16  C   UNL     1      27.364  23.367 -11.633  1.00  0.00     0.062 A 
ATOM     17  C   UNL     1      27.353  21.974 -11.795  1.00  0.00     0.158 A 
BRANCH  15  18
ATOM     18  O   UNL     1      26.286  19.975 -12.633  1.00  0.00    -0.504 OA
ATOM     19  H   UNL     1      26.565  19.351 -11.886  1.00  0.00     0.293 HD
ENDBRANCH  15  18
BRANCH  17  20
ATOM     20  O   UNL     1      28.390  21.197 -11.284  1.00  0.00    -0.504 OA
ATOM     21  H   UNL     1      28.666  20.325 -11.723  1.00  0.00     0.293 HD
ENDBRANCH  17  20
ENDBRANCH   1  12
BRANCH   2  22
ATOM     22  O   UNL     1      25.969  25.424  -9.573  1.00  0.00    -0.502 OA
ATOM     23  H   UNL     1      25.105  24.952  -9.332  1.00  0.00     0.293 HD
ENDBRANCH   2  22
BRANCH   6  24
ATOM     24  O   UNL     1      25.797  30.622 -10.720  1.00  0.00    -0.507 OA
ATOM     25  H   UNL     1      24.869  30.981 -10.554  1.00  0.00     0.293 HD
ENDBRANCH   6  24
BRANCH   8  26
ATOM     26  O   UNL     1      27.020  30.527 -15.346  1.00  0.00    -0.508 OA
ATOM     27  H   UNL     1      26.289  31.007 -15.859  1.00  0.00     0.293 HD
ENDBRANCH   8  26
TORSDOF 6
ENDMDL
MODEL 9
REMARK VINA RESULT:    -5.354      1.743      6.674
REMARK INTER + INTRA:          -6.703
REMARK INTER:                  -6.455
REMARK INTRA:                  -0.248
REMARK UNBOUND:                -0.253
REMARK SMILES O=c1c(O)c(-c2ccc(O)c(O)c2)oc2cc(O)cc(O)c12
REMARK SMILES IDX 5 1 3 2 2 3 1 4 22 5 20 6 19 7 17 8 16 9 15 10 14 11 6 12
REMARK SMILES IDX 7 13 8 14 9 15 13 16 11 17 10 18 12 20 4 22 21 24 18 26
REMARK H PARENT 10 19 12 21 4 23 21 25 18 27
REMARK Flexibility Score: inf
ROOT
ATOM      1  C   UNL     1      26.219  26.110 -11.982  1.00  0.00     0.180 A 
ATOM      2  C   UNL     1      25.136  26.013 -12.873  1.00  0.00     0.208 A 
ATOM      3  C   UNL     1      24.714  24.743 -13.298  1.00  0.00     0.238 A 
ATOM      4  O   UNL     1      23.780  24.666 -14.137  1.00  0.00    -0.285 OA
ATOM      5  C   UNL     1      25.369  23.585 -12.813  1.00  0.00     0.111 A 
ATOM      6  C   UNL     1      25.001  22.247 -13.145  1.00  0.00     0.134 A 
ATOM      7  C   UNL     1      25.801  21.182 -12.712  1.00  0.00     0.093 A 
ATOM      8  C   UNL     1      26.918  21.403 -11.907  1.00  0.00     0.123 A 
ATOM      9  C   UNL     1      27.253  22.702 -11.527  1.00  0.00     0.094 A 
ATOM     10  C   UNL     1      26.495  23.788 -11.973  1.00  0.00     0.146 A 
ATOM     11  O   UNL     1      26.854  25.009 -11.598  1.00  0.00    -0.452 OA
ENDROOT
BRANCH   1  12
ATOM     12  C   UNL     1      26.704  27.412 -11.471  1.00  0.00     0.025 A 
ATOM     13  C   UNL     1      27.464  28.244 -12.310  1.00  0.00     0.016 A 
ATOM     14  C   UNL     1      27.950  29.467 -11.842  1.00  0.00     0.051 A 
ATOM     15  C   UNL     1      27.697  29.870 -10.524  1.00  0.00     0.157 A 
ATOM     16  C   UNL     1      26.469  27.812 -10.143  1.00  0.00     0.062 A 
ATOM     17  C   UNL     1      26.958  29.039  -9.672  1.00  0.00     0.158 A 
BRANCH  15  18
ATOM     18  O   UNL     1      28.177  31.091 -10.055  1.00  0.00    -0.504 OA
ATOM     19  H   UNL     1      27.567  31.889  -9.931  1.00  0.00     0.293 HD
ENDBRANCH  15  18
BRANCH  17  20
ATOM     20  O   UNL     1      26.719  29.436  -8.359  1.00  0.00    -0.504 OA
ATOM     21  H   UNL     1      27.281  30.151  -7.909  1.00  0.00     0.293 HD
ENDBRANCH  17  20
ENDBRANCH   1  12
BRANCH   2  22
ATOM     22  O   UNL     1      24.517  27.169 -13.355  1.00  0.00    -0.502 OA
ATOM     23  H   UNL     1      23.589  27.453 -13.063  1.00  0.00     0.293 HD
ENDBRANCH   2  22
BRANCH   6  24
ATOM     24  O   UNL     1      23.852  21.910 -13.868  1.00  0.00    -0.507 OA
ATOM     25  H   UNL     1      23.173  22.573 -14.209  1.00  0.00     0.293 HD
ENDBRANCH   6  24
BRANCH   8  26
ATOM     26  O   UNL     1      27.683  20.318 -11.480  1.00  0.00    -0.508 OA
ATOM     27  H   UNL     1      28.216  20.352 -10.620  1.00  0.00     0.293 HD
ENDBRANCH   8  26
TORSDOF 6
ENDMDL
