MODEL 1
REMARK VINA RESULT:    -6.952      0.000      0.000
REMARK INTER + INTRA:          -8.660
REMARK INTER:                  -8.374
REMARK INTRA:                  -0.286
REMARK UNBOUND:                -0.286
REMARK SMILES O=c1c(O)c(-c2ccc(O)c(O)c2)oc2cc(O)cc(O)c12
REMARK SMILES IDX 5 1 3 2 2 3 1 4 22 5 20 6 19 7 17 8 16 9 15 10 14 11 6 12
REMARK SMILES IDX 7 13 8 14 9 15 13 16 11 17 10 18 12 20 4 22 21 24 18 26
REMARK H PARENT 10 19 12 21 4 23 21 25 18 27
REMARK Flexibility Score: inf
ROOT
ATOM      1  C   UNL     1     165.388 157.595 199.054  1.00  0.00     0.180 A 
ATOM      2  C   UNL     1     165.761 156.384 199.667  1.00  0.00     0.208 A 
ATOM      3  C   UNL     1     164.756 155.535 200.158  1.00  0.00     0.238 A 
ATOM      4  O   UNL     1     165.077 154.442 200.700  1.00  0.00    -0.285 OA
ATOM      5  C   UNL     1     163.404 155.919 200.047  1.00  0.00     0.111 A 
ATOM      6  C   UNL     1     162.331 155.123 200.519  1.00  0.00     0.134 A 
ATOM      7  C   UNL     1     161.013 155.580 200.380  1.00  0.00     0.093 A 
ATOM      8  C   UNL     1     160.745 156.812 199.781  1.00  0.00     0.123 A 
ATOM      9  C   UNL     1     161.800 157.603 199.311  1.00  0.00     0.094 A 
ATOM     10  C   UNL     1     163.121 157.165 199.439  1.00  0.00     0.146 A 
ATOM     11  O   UNL     1     164.104 157.931 198.981  1.00  0.00    -0.452 OA
ENDROOT
BRANCH   1  12
ATOM     12  C   UNL     1     166.387 158.534 198.495  1.00  0.00     0.025 A 
ATOM     13  C   UNL     1     166.664 159.732 199.172  1.00  0.00     0.016 A 
ATOM     14  C   UNL     1     167.589 160.642 198.652  1.00  0.00     0.051 A 
ATOM     15  C   UNL     1     168.238 160.374 197.440  1.00  0.00     0.157 A 
ATOM     16  C   UNL     1     167.027 158.278 197.268  1.00  0.00     0.062 A 
ATOM     17  C   UNL     1     167.953 159.193 196.745  1.00  0.00     0.158 A 
BRANCH  15  18
ATOM     18  O   UNL     1     169.162 161.278 196.919  1.00  0.00    -0.504 OA
ATOM     19  H   UNL     1     169.845 160.997 196.226  1.00  0.00     0.293 HD
ENDBRANCH  15  18
BRANCH  17  20
ATOM     20  O   UNL     1     168.590 158.935 195.532  1.00  0.00    -0.504 OA
ATOM     21  H   UNL     1     168.758 157.987 195.212  1.00  0.00     0.293 HD
ENDBRANCH  17  20
ENDBRANCH   1  12
BRANCH   2  22
ATOM     22  O   UNL     1     167.110 156.050 199.809  1.00  0.00    -0.502 OA
ATOM     23  H   UNL     1     167.538 155.892 200.714  1.00  0.00     0.293 HD
ENDBRANCH   2  22
BRANCH   6  24
ATOM     24  O   UNL     1     162.566 153.888 201.125  1.00  0.00    -0.507 OA
ATOM     25  H   UNL     1     161.811 153.327 201.501  1.00  0.00     0.293 HD
ENDBRANCH   6  24
BRANCH   8  26
ATOM     26  O   UNL     1     159.426 157.243 199.655  1.00  0.00    -0.508 OA
ATOM     27  H   UNL     1     158.782 157.214 200.438  1.00  0.00     0.293 HD
ENDBRANCH   8  26
TORSDOF 6
ENDMDL
MODEL 2
REMARK VINA RESULT:    -6.519      1.337      1.484
REMARK INTER + INTRA:          -8.138
REMARK INTER:                  -7.843
REMARK INTRA:                  -0.295
REMARK UNBOUND:                -0.286
REMARK SMILES O=c1c(O)c(-c2ccc(O)c(O)c2)oc2cc(O)cc(O)c12
REMARK SMILES IDX 5 1 3 2 2 3 1 4 22 5 20 6 19 7 17 8 16 9 15 10 14 11 6 12
REMARK SMILES IDX 7 13 8 14 9 15 13 16 11 17 10 18 12 20 4 22 21 24 18 26
REMARK H PARENT 10 19 12 21 4 23 21 25 18 27
REMARK Flexibility Score: inf
ROOT
ATOM      1  C   UNL     1     166.138 158.374 198.572  1.00  0.00     0.180 A 
ATOM      2  C   UNL     1     166.482 157.049 198.903  1.00  0.00     0.208 A 
ATOM      3  C   UNL     1     165.562 156.269 199.620  1.00  0.00     0.238 A 
ATOM      4  O   UNL     1     165.855 155.078 199.913  1.00  0.00    -0.285 OA
ATOM      5  C   UNL     1     164.329 156.829 200.012  1.00  0.00     0.111 A 
ATOM      6  C   UNL     1     163.349 156.111 200.740  1.00  0.00     0.134 A 
ATOM      7  C   UNL     1     162.149 156.742 201.100  1.00  0.00     0.093 A 
ATOM      8  C   UNL     1     161.910 158.072 200.749  1.00  0.00     0.123 A 
ATOM      9  C   UNL     1     162.874 158.786 200.028  1.00  0.00     0.094 A 
ATOM     10  C   UNL     1     164.075 158.175 199.658  1.00  0.00     0.146 A 
ATOM     11  O   UNL     1     164.971 158.873 198.971  1.00  0.00    -0.452 OA
ENDROOT
BRANCH   1  12
ATOM     12  C   UNL     1     167.045 159.254 197.800  1.00  0.00     0.025 A 
ATOM     13  C   UNL     1     167.744 160.276 198.463  1.00  0.00     0.016 A 
ATOM     14  C   UNL     1     168.591 161.131 197.751  1.00  0.00     0.051 A 
ATOM     15  C   UNL     1     168.738 160.985 196.366  1.00  0.00     0.157 A 
ATOM     16  C   UNL     1     167.181 159.125 196.406  1.00  0.00     0.062 A 
ATOM     17  C   UNL     1     168.028 159.984 195.692  1.00  0.00     0.158 A 
BRANCH  15  18
ATOM     18  O   UNL     1     169.582 161.835 195.653  1.00  0.00    -0.504 OA
ATOM     19  H   UNL     1     169.538 162.841 195.763  1.00  0.00     0.293 HD
ENDBRANCH  15  18
BRANCH  17  20
ATOM     20  O   UNL     1     168.166 159.851 194.311  1.00  0.00    -0.504 OA
ATOM     21  H   UNL     1     167.359 159.823 193.697  1.00  0.00     0.293 HD
ENDBRANCH  17  20
ENDBRANCH   1  12
BRANCH   2  22
ATOM     22  O   UNL     1     167.731 156.535 198.547  1.00  0.00    -0.502 OA
ATOM     23  H   UNL     1     168.064 156.532 197.590  1.00  0.00     0.293 HD
ENDBRANCH   2  22
BRANCH   6  24
ATOM     24  O   UNL     1     163.558 154.781 201.109  1.00  0.00    -0.507 OA
ATOM     25  H   UNL     1     164.468 154.343 201.029  1.00  0.00     0.293 HD
ENDBRANCH   6  24
BRANCH   8  26
ATOM     26  O   UNL     1     160.711 158.676 201.120  1.00  0.00    -0.508 OA
ATOM     27  H   UNL     1     160.675 159.644 201.421  1.00  0.00     0.293 HD
ENDBRANCH   8  26
TORSDOF 6
ENDMDL
MODEL 3
REMARK VINA RESULT:    -6.515      1.490      1.997
REMARK INTER + INTRA:          -8.134
REMARK INTER:                  -7.809
REMARK INTRA:                  -0.325
REMARK UNBOUND:                -0.286
REMARK SMILES O=c1c(O)c(-c2ccc(O)c(O)c2)oc2cc(O)cc(O)c12
REMARK SMILES IDX 5 1 3 2 2 3 1 4 22 5 20 6 19 7 17 8 16 9 15 10 14 11 6 12
REMARK SMILES IDX 7 13 8 14 9 15 13 16 11 17 10 18 12 20 4 22 21 24 18 26
REMARK H PARENT 10 19 12 21 4 23 21 25 18 27
REMARK Flexibility Score: inf
ROOT
ATOM      1  C   UNL     1     166.141 158.500 198.551  1.00  0.00     0.180 A 
ATOM      2  C   UNL     1     166.482 157.157 198.801  1.00  0.00     0.208 A 
ATOM      3  C   UNL     1     165.561 156.338 199.472  1.00  0.00     0.238 A 
ATOM      4  O   UNL     1     165.850 155.130 199.693  1.00  0.00    -0.285 OA
ATOM      5  C   UNL     1     164.330 156.877 199.899  1.00  0.00     0.111 A 
ATOM      6  C   UNL     1     163.349 156.120 200.585  1.00  0.00     0.134 A 
ATOM      7  C   UNL     1     162.152 156.733 200.985  1.00  0.00     0.093 A 
ATOM      8  C   UNL     1     161.917 158.082 200.715  1.00  0.00     0.123 A 
ATOM      9  C   UNL     1     162.882 158.835 200.036  1.00  0.00     0.094 A 
ATOM     10  C   UNL     1     164.080 158.243 199.628  1.00  0.00     0.146 A 
ATOM     11  O   UNL     1     164.978 158.978 198.982  1.00  0.00    -0.452 OA
ENDROOT
BRANCH   1  12
ATOM     12  C   UNL     1     167.050 159.422 197.832  1.00  0.00     0.025 A 
ATOM     13  C   UNL     1     166.991 159.496 196.431  1.00  0.00     0.016 A 
ATOM     14  C   UNL     1     167.853 160.344 195.730  1.00  0.00     0.051 A 
ATOM     15  C   UNL     1     168.797 161.117 196.418  1.00  0.00     0.157 A 
ATOM     16  C   UNL     1     168.013 160.185 198.517  1.00  0.00     0.062 A 
ATOM     17  C   UNL     1     168.880 161.034 197.814  1.00  0.00     0.158 A 
BRANCH  15  18
ATOM     18  O   UNL     1     169.657 161.965 195.723  1.00  0.00    -0.504 OA
ATOM     19  H   UNL     1     170.137 161.661 194.884  1.00  0.00     0.293 HD
ENDBRANCH  15  18
BRANCH  17  20
ATOM     20  O   UNL     1     169.829 161.794 198.495  1.00  0.00    -0.504 OA
ATOM     21  H   UNL     1     170.702 162.070 198.057  1.00  0.00     0.293 HD
ENDBRANCH  17  20
ENDBRANCH   1  12
BRANCH   2  22
ATOM     22  O   UNL     1     167.728 156.660 198.412  1.00  0.00    -0.502 OA
ATOM     23  H   UNL     1     167.834 155.775 197.931  1.00  0.00     0.293 HD
ENDBRANCH   2  22
BRANCH   6  24
ATOM     24  O   UNL     1     163.554 154.770 200.873  1.00  0.00    -0.507 OA
ATOM     25  H   UNL     1     163.987 154.143 200.205  1.00  0.00     0.293 HD
ENDBRANCH   6  24
BRANCH   8  26
ATOM     26  O   UNL     1     160.721 158.667 201.124  1.00  0.00    -0.508 OA
ATOM     27  H   UNL     1     160.700 159.576 201.572  1.00  0.00     0.293 HD
ENDBRANCH   8  26
TORSDOF 6
ENDMDL
MODEL 4
REMARK VINA RESULT:    -6.458      2.276      4.206
REMARK INTER + INTRA:          -8.065
REMARK INTER:                  -7.800
REMARK INTRA:                  -0.264
REMARK UNBOUND:                -0.286
REMARK SMILES O=c1c(O)c(-c2ccc(O)c(O)c2)oc2cc(O)cc(O)c12
REMARK SMILES IDX 5 1 3 2 2 3 1 4 22 5 20 6 19 7 17 8 16 9 15 10 14 11 6 12
REMARK SMILES IDX 7 13 8 14 9 15 13 16 11 17 10 18 12 20 4 22 21 24 18 26
REMARK H PARENT 10 19 12 21 4 23 21 25 18 27
REMARK Flexibility Score: inf
ROOT
ATOM      1  C   UNL     1     166.625 159.153 197.637  1.00  0.00     0.180 A 
ATOM      2  C   UNL     1     165.319 159.471 198.054  1.00  0.00     0.208 A 
ATOM      3  C   UNL     1     164.647 158.587 198.912  1.00  0.00     0.238 A 
ATOM      4  O   UNL     1     163.480 158.866 199.302  1.00  0.00    -0.285 OA
ATOM      5  C   UNL     1     165.281 157.395 199.321  1.00  0.00     0.111 A 
ATOM      6  C   UNL     1     164.672 156.450 200.182  1.00  0.00     0.134 A 
ATOM      7  C   UNL     1     165.366 155.283 200.535  1.00  0.00     0.093 A 
ATOM      8  C   UNL     1     166.651 155.043 200.046  1.00  0.00     0.123 A 
ATOM      9  C   UNL     1     167.259 155.974 199.197  1.00  0.00     0.094 A 
ATOM     10  C   UNL     1     166.585 157.143 198.834  1.00  0.00     0.146 A 
ATOM     11  O   UNL     1     167.186 158.013 198.030  1.00  0.00    -0.452 OA
ENDROOT
BRANCH   1  12
ATOM     12  C   UNL     1     167.406 160.043 196.748  1.00  0.00     0.025 A 
ATOM     13  C   UNL     1     167.660 159.648 195.425  1.00  0.00     0.016 A 
ATOM     14  C   UNL     1     168.412 160.464 194.574  1.00  0.00     0.051 A 
ATOM     15  C   UNL     1     168.933 161.678 195.039  1.00  0.00     0.157 A 
ATOM     16  C   UNL     1     167.948 161.254 197.216  1.00  0.00     0.062 A 
ATOM     17  C   UNL     1     168.705 162.071 196.363  1.00  0.00     0.158 A 
BRANCH  15  18
ATOM     18  O   UNL     1     169.682 162.494 194.194  1.00  0.00    -0.504 OA
ATOM     19  H   UNL     1     170.445 163.062 194.544  1.00  0.00     0.293 HD
ENDBRANCH  15  18
BRANCH  17  20
ATOM     20  O   UNL     1     169.236 163.273 196.827  1.00  0.00    -0.504 OA
ATOM     21  H   UNL     1     168.941 164.166 196.447  1.00  0.00     0.293 HD
ENDBRANCH  17  20
ENDBRANCH   1  12
BRANCH   2  22
ATOM     22  O   UNL     1     164.694 160.633 197.595  1.00  0.00    -0.502 OA
ATOM     23  H   UNL     1     165.167 161.529 197.567  1.00  0.00     0.293 HD
ENDBRANCH   2  22
BRANCH   6  24
ATOM     24  O   UNL     1     163.387 156.659 200.685  1.00  0.00    -0.507 OA
ATOM     25  H   UNL     1     162.871 157.509 200.493  1.00  0.00     0.293 HD
ENDBRANCH   6  24
BRANCH   8  26
ATOM     26  O   UNL     1     167.318 153.876 200.411  1.00  0.00    -0.508 OA
ATOM     27  H   UNL     1     166.871 153.164 200.978  1.00  0.00     0.293 HD
ENDBRANCH   8  26
TORSDOF 6
ENDMDL
MODEL 5
REMARK VINA RESULT:    -6.414      1.523      7.214
REMARK INTER + INTRA:          -8.012
REMARK INTER:                  -8.059
REMARK INTRA:                   0.047
REMARK UNBOUND:                -0.286
REMARK SMILES O=c1c(O)c(-c2ccc(O)c(O)c2)oc2cc(O)cc(O)c12
REMARK SMILES IDX 5 1 3 2 2 3 1 4 22 5 20 6 19 7 17 8 16 9 15 10 14 11 6 12
REMARK SMILES IDX 7 13 8 14 9 15 13 16 11 17 10 18 12 20 4 22 21 24 18 26
REMARK H PARENT 10 19 12 21 4 23 21 25 18 27
REMARK Flexibility Score: inf
ROOT
ATOM      1  C   UNL     1     164.446 157.590 199.251  1.00  0.00     0.180 A 
ATOM      2  C   UNL     1     164.358 158.994 199.294  1.00  0.00     0.208 A 
ATOM      3  C   UNL     1     165.422 159.756 198.787  1.00  0.00     0.238 A 
ATOM      4  O   UNL     1     165.351 161.015 198.811  1.00  0.00    -0.285 OA
ATOM      5  C   UNL     1     166.560 159.106 198.267  1.00  0.00     0.111 A 
ATOM      6  C   UNL     1     167.677 159.799 197.740  1.00  0.00     0.134 A 
ATOM      7  C   UNL     1     168.775 159.079 197.250  1.00  0.00     0.093 A 
ATOM      8  C   UNL     1     168.780 157.683 197.274  1.00  0.00     0.123 A 
ATOM      9  C   UNL     1     167.680 156.991 197.792  1.00  0.00     0.094 A 
ATOM     10  C   UNL     1     166.575 157.691 198.285  1.00  0.00     0.146 A 
ATOM     11  O   UNL     1     165.541 157.011 198.767  1.00  0.00    -0.452 OA
ENDROOT
BRANCH   1  12
ATOM     12  C   UNL     1     163.358 156.718 199.747  1.00  0.00     0.025 A 
ATOM     13  C   UNL     1     163.676 155.578 200.502  1.00  0.00     0.016 A 
ATOM     14  C   UNL     1     162.666 154.729 200.965  1.00  0.00     0.051 A 
ATOM     15  C   UNL     1     161.325 155.000 200.665  1.00  0.00     0.157 A 
ATOM     16  C   UNL     1     162.011 156.974 199.432  1.00  0.00     0.062 A 
ATOM     17  C   UNL     1     160.997 156.122 199.894  1.00  0.00     0.158 A 
BRANCH  15  18
ATOM     18  O   UNL     1     160.315 154.157 201.125  1.00  0.00    -0.504 OA
ATOM     19  H   UNL     1     159.906 153.446 200.530  1.00  0.00     0.293 HD
ENDBRANCH  15  18
BRANCH  17  20
ATOM     20  O   UNL     1     159.663 156.381 199.585  1.00  0.00    -0.504 OA
ATOM     21  H   UNL     1     158.927 155.722 199.815  1.00  0.00     0.293 HD
ENDBRANCH  17  20
ENDBRANCH   1  12
BRANCH   2  22
ATOM     22  O   UNL     1     163.242 159.615 199.860  1.00  0.00    -0.502 OA
ATOM     23  H   UNL     1     162.319 159.556 199.445  1.00  0.00     0.293 HD
ENDBRANCH   2  22
BRANCH   6  24
ATOM     24  O   UNL     1     167.703 161.194 197.703  1.00  0.00    -0.507 OA
ATOM     25  H   UNL     1     168.569 161.714 197.785  1.00  0.00     0.293 HD
ENDBRANCH   6  24
BRANCH   8  26
ATOM     26  O   UNL     1     169.884 156.991 196.782  1.00  0.00    -0.508 OA
ATOM     27  H   UNL     1     169.995 155.994 196.930  1.00  0.00     0.293 HD
ENDBRANCH   8  26
TORSDOF 6
ENDMDL
MODEL 6
REMARK VINA RESULT:    -6.351      1.739      2.558
REMARK INTER + INTRA:          -7.937
REMARK INTER:                  -7.709
REMARK INTRA:                  -0.228
REMARK UNBOUND:                -0.286
REMARK SMILES O=c1c(O)c(-c2ccc(O)c(O)c2)oc2cc(O)cc(O)c12
REMARK SMILES IDX 5 1 3 2 2 3 1 4 22 5 20 6 19 7 17 8 16 9 15 10 14 11 6 12
REMARK SMILES IDX 7 13 8 14 9 15 13 16 11 17 10 18 12 20 4 22 21 24 18 26
REMARK H PARENT 10 19 12 21 4 23 21 25 18 27
REMARK Flexibility Score: inf
ROOT
ATOM      1  C   UNL     1     166.830 158.907 197.718  1.00  0.00     0.180 A 
ATOM      2  C   UNL     1     167.336 157.620 197.983  1.00  0.00     0.208 A 
ATOM      3  C   UNL     1     166.565 156.735 198.752  1.00  0.00     0.238 A 
ATOM      4  O   UNL     1     167.002 155.575 198.988  1.00  0.00    -0.285 OA
ATOM      5  C   UNL     1     165.318 157.155 199.259  1.00  0.00     0.111 A 
ATOM      6  C   UNL     1     164.482 156.325 200.046  1.00  0.00     0.134 A 
ATOM      7  C   UNL     1     163.259 156.820 200.520  1.00  0.00     0.093 A 
ATOM      8  C   UNL     1     162.856 158.124 200.226  1.00  0.00     0.123 A 
ATOM      9  C   UNL     1     163.676 158.949 199.448  1.00  0.00     0.094 A 
ATOM     10  C   UNL     1     164.898 158.473 198.965  1.00  0.00     0.146 A 
ATOM     11  O   UNL     1     165.657 159.274 198.225  1.00  0.00    -0.452 OA
ENDROOT
BRANCH   1  12
ATOM     12  C   UNL     1     167.574 159.891 196.899  1.00  0.00     0.025 A 
ATOM     13  C   UNL     1     168.051 161.068 197.497  1.00  0.00     0.016 A 
ATOM     14  C   UNL     1     168.738 162.021 196.739  1.00  0.00     0.051 A 
ATOM     15  C   UNL     1     168.943 161.816 195.369  1.00  0.00     0.157 A 
ATOM     16  C   UNL     1     167.765 159.700 195.519  1.00  0.00     0.062 A 
ATOM     17  C   UNL     1     168.453 160.656 194.757  1.00  0.00     0.158 A 
BRANCH  15  18
ATOM     18  O   UNL     1     169.629 162.762 194.609  1.00  0.00    -0.504 OA
ATOM     19  H   UNL     1     169.455 162.873 193.617  1.00  0.00     0.293 HD
ENDBRANCH  15  18
BRANCH  17  20
ATOM     20  O   UNL     1     168.647 160.462 193.390  1.00  0.00    -0.504 OA
ATOM     21  H   UNL     1     168.151 159.739 192.881  1.00  0.00     0.293 HD
ENDBRANCH  17  20
ENDBRANCH   1  12
BRANCH   2  22
ATOM     22  O   UNL     1     168.596 157.246 197.512  1.00  0.00    -0.502 OA
ATOM     23  H   UNL     1     169.291 157.923 197.221  1.00  0.00     0.293 HD
ENDBRANCH   2  22
BRANCH   6  24
ATOM     24  O   UNL     1     164.857 155.018 200.359  1.00  0.00    -0.507 OA
ATOM     25  H   UNL     1     164.206 154.245 200.289  1.00  0.00     0.293 HD
ENDBRANCH   6  24
BRANCH   8  26
ATOM     26  O   UNL     1     161.636 158.592 200.711  1.00  0.00    -0.508 OA
ATOM     27  H   UNL     1     161.484 159.577 200.901  1.00  0.00     0.293 HD
ENDBRANCH   8  26
TORSDOF 6
ENDMDL
MODEL 7
REMARK VINA RESULT:    -5.959      2.777      4.882
REMARK INTER + INTRA:          -7.464
REMARK INTER:                  -7.229
REMARK INTRA:                  -0.235
REMARK UNBOUND:                -0.286
REMARK SMILES O=c1c(O)c(-c2ccc(O)c(O)c2)oc2cc(O)cc(O)c12
REMARK SMILES IDX 5 1 3 2 2 3 1 4 22 5 20 6 19 7 17 8 16 9 15 10 14 11 6 12
REMARK SMILES IDX 7 13 8 14 9 15 13 16 11 17 10 18 12 20 4 22 21 24 18 26
REMARK H PARENT 10 19 12 21 4 23 21 25 18 27
REMARK Flexibility Score: inf
ROOT
ATOM      1  C   UNL     1     167.971 159.639 195.961  1.00  0.00     0.180 A 
ATOM      2  C   UNL     1     168.557 158.452 196.440  1.00  0.00     0.208 A 
ATOM      3  C   UNL     1     167.926 157.757 197.483  1.00  0.00     0.238 A 
ATOM      4  O   UNL     1     168.435 156.687 197.914  1.00  0.00    -0.285 OA
ATOM      5  C   UNL     1     166.737 158.269 198.043  1.00  0.00     0.111 A 
ATOM      6  C   UNL     1     166.041 157.633 199.099  1.00  0.00     0.134 A 
ATOM      7  C   UNL     1     164.869 158.211 199.608  1.00  0.00     0.093 A 
ATOM      8  C   UNL     1     164.380 159.409 199.083  1.00  0.00     0.123 A 
ATOM      9  C   UNL     1     165.062 160.043 198.039  1.00  0.00     0.094 A 
ATOM     10  C   UNL     1     166.231 159.482 197.517  1.00  0.00     0.146 A 
ATOM     11  O   UNL     1     166.857 160.100 196.523  1.00  0.00    -0.452 OA
ENDROOT
BRANCH   1  12
ATOM     12  C   UNL     1     168.565 160.417 194.850  1.00  0.00     0.025 A 
ATOM     13  C   UNL     1     168.519 159.903 193.545  1.00  0.00     0.016 A 
ATOM     14  C   UNL     1     169.091 160.611 192.484  1.00  0.00     0.051 A 
ATOM     15  C   UNL     1     169.731 161.835 192.716  1.00  0.00     0.157 A 
ATOM     16  C   UNL     1     169.226 161.637 195.082  1.00  0.00     0.062 A 
ATOM     17  C   UNL     1     169.803 162.347 194.018  1.00  0.00     0.158 A 
BRANCH  15  18
ATOM     18  O   UNL     1     170.302 162.545 191.661  1.00  0.00    -0.504 OA
ATOM     19  H   UNL     1     169.934 162.481 190.719  1.00  0.00     0.293 HD
ENDBRANCH  15  18
BRANCH  17  20
ATOM     20  O   UNL     1     170.452 163.558 194.248  1.00  0.00    -0.504 OA
ATOM     21  H   UNL     1     170.446 164.303 193.559  1.00  0.00     0.293 HD
ENDBRANCH  17  20
ENDBRANCH   1  12
BRANCH   2  22
ATOM     22  O   UNL     1     169.761 157.992 195.902  1.00  0.00    -0.502 OA
ATOM     23  H   UNL     1     170.386 158.593 195.378  1.00  0.00     0.293 HD
ENDBRANCH   2  22
BRANCH   6  24
ATOM     24  O   UNL     1     166.504 156.436 199.647  1.00  0.00    -0.507 OA
ATOM     25  H   UNL     1     166.076 155.546 199.423  1.00  0.00     0.293 HD
ENDBRANCH   6  24
BRANCH   8  26
ATOM     26  O   UNL     1     163.214 159.963 199.607  1.00  0.00    -0.508 OA
ATOM     27  H   UNL     1     162.332 159.463 199.584  1.00  0.00     0.293 HD
ENDBRANCH   8  26
TORSDOF 6
ENDMDL
MODEL 8
REMARK VINA RESULT:    -5.838      2.627      8.310
REMARK INTER + INTRA:          -7.319
REMARK INTER:                  -6.997
REMARK INTRA:                  -0.322
REMARK UNBOUND:                -0.286
REMARK SMILES O=c1c(O)c(-c2ccc(O)c(O)c2)oc2cc(O)cc(O)c12
REMARK SMILES IDX 5 1 3 2 2 3 1 4 22 5 20 6 19 7 17 8 16 9 15 10 14 11 6 12
REMARK SMILES IDX 7 13 8 14 9 15 13 16 11 17 10 18 12 20 4 22 21 24 18 26
REMARK H PARENT 10 19 12 21 4 23 21 25 18 27
REMARK Flexibility Score: inf
ROOT
ATOM      1  C   UNL     1     167.792 160.109 196.976  1.00  0.00     0.180 A 
ATOM      2  C   UNL     1     168.597 161.127 197.522  1.00  0.00     0.208 A 
ATOM      3  C   UNL     1     169.401 161.890 196.662  1.00  0.00     0.238 A 
ATOM      4  O   UNL     1     170.118 162.812 197.138  1.00  0.00    -0.285 OA
ATOM      5  C   UNL     1     169.404 161.611 195.280  1.00  0.00     0.111 A 
ATOM      6  C   UNL     1     170.189 162.331 194.346  1.00  0.00     0.134 A 
ATOM      7  C   UNL     1     170.143 161.986 192.987  1.00  0.00     0.093 A 
ATOM      8  C   UNL     1     169.332 160.939 192.545  1.00  0.00     0.123 A 
ATOM      9  C   UNL     1     168.553 160.225 193.462  1.00  0.00     0.094 A 
ATOM     10  C   UNL     1     168.584 160.554 194.820  1.00  0.00     0.146 A 
ATOM     11  O   UNL     1     167.832 159.864 195.670  1.00  0.00    -0.452 OA
ENDROOT
BRANCH   1  12
ATOM     12  C   UNL     1     166.903 159.274 197.815  1.00  0.00     0.025 A 
ATOM     13  C   UNL     1     165.614 159.736 198.127  1.00  0.00     0.016 A 
ATOM     14  C   UNL     1     164.764 158.974 198.934  1.00  0.00     0.051 A 
ATOM     15  C   UNL     1     165.197 157.747 199.453  1.00  0.00     0.157 A 
ATOM     16  C   UNL     1     167.339 158.051 198.355  1.00  0.00     0.062 A 
ATOM     17  C   UNL     1     166.488 157.287 199.167  1.00  0.00     0.158 A 
BRANCH  15  18
ATOM     18  O   UNL     1     164.352 156.984 200.256  1.00  0.00    -0.504 OA
ATOM     19  H   UNL     1     164.333 157.096 201.263  1.00  0.00     0.293 HD
ENDBRANCH  15  18
BRANCH  17  20
ATOM     20  O   UNL     1     166.920 156.072 199.695  1.00  0.00    -0.504 OA
ATOM     21  H   UNL     1     167.759 155.614 199.356  1.00  0.00     0.293 HD
ENDBRANCH  17  20
ENDBRANCH   1  12
BRANCH   2  22
ATOM     22  O   UNL     1     168.614 161.350 198.901  1.00  0.00    -0.502 OA
ATOM     23  H   UNL     1     169.459 161.271 199.454  1.00  0.00     0.293 HD
ENDBRANCH   2  22
BRANCH   6  24
ATOM     24  O   UNL     1     171.011 163.381 194.756  1.00  0.00    -0.507 OA
ATOM     25  H   UNL     1     171.394 164.048 194.097  1.00  0.00     0.293 HD
ENDBRANCH   6  24
BRANCH   8  26
ATOM     26  O   UNL     1     169.305 160.616 191.190  1.00  0.00    -0.508 OA
ATOM     27  H   UNL     1     169.662 161.252 190.485  1.00  0.00     0.293 HD
ENDBRANCH   8  26
TORSDOF 6
ENDMDL
MODEL 9
REMARK VINA RESULT:    -5.698      2.476      4.576
REMARK INTER + INTRA:          -7.149
REMARK INTER:                  -6.878
REMARK INTRA:                  -0.271
REMARK UNBOUND:                -0.286
REMARK SMILES O=c1c(O)c(-c2ccc(O)c(O)c2)oc2cc(O)cc(O)c12
REMARK SMILES IDX 5 1 3 2 2 3 1 4 22 5 20 6 19 7 17 8 16 9 15 10 14 11 6 12
REMARK SMILES IDX 7 13 8 14 9 15 13 16 11 17 10 18 12 20 4 22 21 24 18 26
REMARK H PARENT 10 19 12 21 4 23 21 25 18 27
REMARK Flexibility Score: inf
ROOT
ATOM      1  C   UNL     1     168.323 160.352 197.701  1.00  0.00     0.180 A 
ATOM      2  C   UNL     1     168.933 159.136 197.336  1.00  0.00     0.208 A 
ATOM      3  C   UNL     1     168.274 157.933 197.630  1.00  0.00     0.238 A 
ATOM      4  O   UNL     1     168.805 156.837 197.299  1.00  0.00    -0.285 OA
ATOM      5  C   UNL     1     167.034 157.962 198.300  1.00  0.00     0.111 A 
ATOM      6  C   UNL     1     166.307 156.794 198.637  1.00  0.00     0.134 A 
ATOM      7  C   UNL     1     165.083 156.907 199.312  1.00  0.00     0.093 A 
ATOM      8  C   UNL     1     164.572 158.160 199.656  1.00  0.00     0.123 A 
ATOM      9  C   UNL     1     165.285 159.318 199.325  1.00  0.00     0.094 A 
ATOM     10  C   UNL     1     166.506 159.227 198.651  1.00  0.00     0.146 A 
ATOM     11  O   UNL     1     167.160 160.341 198.345  1.00  0.00    -0.452 OA
ENDROOT
BRANCH   1  12
ATOM     12  C   UNL     1     168.946 161.663 197.408  1.00  0.00     0.025 A 
ATOM     13  C   UNL     1     170.000 162.123 198.213  1.00  0.00     0.016 A 
ATOM     14  C   UNL     1     170.589 163.366 197.968  1.00  0.00     0.051 A 
ATOM     15  C   UNL     1     170.121 164.174 196.923  1.00  0.00     0.157 A 
ATOM     16  C   UNL     1     168.467 162.487 196.373  1.00  0.00     0.062 A 
ATOM     17  C   UNL     1     169.056 163.736 196.128  1.00  0.00     0.158 A 
BRANCH  15  18
ATOM     18  O   UNL     1     170.707 165.414 196.674  1.00  0.00    -0.504 OA
ATOM     19  H   UNL     1     170.194 166.278 196.804  1.00  0.00     0.293 HD
ENDBRANCH  15  18
BRANCH  17  20
ATOM     20  O   UNL     1     168.584 164.548 195.098  1.00  0.00    -0.504 OA
ATOM     21  H   UNL     1     168.478 164.198 194.152  1.00  0.00     0.293 HD
ENDBRANCH  17  20
ENDBRANCH   1  12
BRANCH   2  22
ATOM     22  O   UNL     1     170.186 159.132 196.718  1.00  0.00    -0.502 OA
ATOM     23  H   UNL     1     170.649 159.984 196.424  1.00  0.00     0.293 HD
ENDBRANCH   2  22
BRANCH   6  24
ATOM     24  O   UNL     1     166.791 155.527 198.308  1.00  0.00    -0.507 OA
ATOM     25  H   UNL     1     166.985 155.262 197.350  1.00  0.00     0.293 HD
ENDBRANCH   6  24
BRANCH   8  26
ATOM     26  O   UNL     1     163.355 158.245 200.327  1.00  0.00    -0.508 OA
ATOM     27  H   UNL     1     163.165 158.987 200.992  1.00  0.00     0.293 HD
ENDBRANCH   8  26
TORSDOF 6
ENDMDL
