MODEL 1
REMARK VINA RESULT:    -4.155      0.000      0.000
REMARK INTER + INTRA:         -10.798
REMARK INTER:                  -8.041
REMARK INTRA:                  -2.757
REMARK UNBOUND:                -2.757
REMARK SMILES CCCCCCCCCCCCCCCCCC(=O)[O-]
REMARK SMILES IDX 10 1 11 2 12 3 13 4 14 5 15 6 16 7 17 8 18 9 19 10 20 11
REMARK SMILES IDX 9 12 8 13 7 14 6 15 5 16 4 17 3 18 2 19 1 20
REMARK H PARENT
REMARK Flexibility Score: inf
ROOT
ATOM      1  C   UNL     1      84.524 317.502 202.474  1.00  0.00     0.000 C 
ENDROOT
BRANCH   1   2
ATOM      2  C   UNL     1      85.816 317.677 203.286  1.00  0.00     0.000 C 
BRANCH   2   3
ATOM      3  C   UNL     1      85.556 318.024 204.764  1.00  0.00     0.000 C 
BRANCH   3   4
ATOM      4  C   UNL     1      84.880 316.912 205.588  1.00  0.00     0.000 C 
BRANCH   4   5
ATOM      5  C   UNL     1      85.805 316.316 206.662  1.00  0.00     0.000 C 
BRANCH   5   6
ATOM      6  C   UNL     1      85.748 314.781 206.721  1.00  0.00     0.000 C 
BRANCH   6   7
ATOM      7  C   UNL     1      84.567 314.132 205.972  1.00  0.00     0.006 C 
BRANCH   7   8
ATOM      8  C   UNL     1      84.130 312.770 206.544  1.00  0.00     0.053 C 
BRANCH   8   9
ATOM      9  C   UNL     1      84.648 311.614 205.742  1.00  0.00     0.041 C 
ATOM     10  O   UNL     1      83.885 310.657 205.442  1.00  0.00    -0.550 OA
ATOM     11  O   UNL     1      85.960 311.612 205.288  1.00  0.00    -0.550 OA
ENDBRANCH   8   9
ENDBRANCH   7   8
ENDBRANCH   6   7
ENDBRANCH   5   6
ENDBRANCH   4   5
ENDBRANCH   3   4
ENDBRANCH   2   3
ENDBRANCH   1   2
BRANCH   1  12
ATOM     12  C   UNL     1      84.580 316.229 201.621  1.00  0.00     0.000 C 
BRANCH  12  13
ATOM     13  C   UNL     1      84.618 314.974 202.507  1.00  0.00    -0.000 C 
BRANCH  13  14
ATOM     14  C   UNL     1      85.693 313.963 202.069  1.00  0.00    -0.000 C 
BRANCH  14  15
ATOM     15  C   UNL     1      87.074 314.568 201.758  1.00  0.00    -0.000 C 
BRANCH  15  16
ATOM     16  C   UNL     1      88.179 314.054 202.697  1.00  0.00    -0.000 C 
BRANCH  16  17
ATOM     17  C   UNL     1      88.079 314.654 204.110  1.00  0.00    -0.000 C 
BRANCH  17  18
ATOM     18  C   UNL     1      88.795 316.008 204.231  1.00  0.00    -0.000 C 
BRANCH  18  19
ATOM     19  C   UNL     1      89.391 316.189 205.632  1.00  0.00    -0.003 C 
ATOM     20  C   UNL     1      89.410 314.870 206.398  1.00  0.00     0.004 C 
ENDBRANCH  18  19
ENDBRANCH  17  18
ENDBRANCH  16  17
ENDBRANCH  15  16
ENDBRANCH  14  15
ENDBRANCH  13  14
ENDBRANCH  12  13
ENDBRANCH   1  12
TORSDOF 16
ENDMDL
MODEL 2
REMARK VINA RESULT:    -4.094      3.764      6.144
REMARK INTER + INTRA:         -10.681
REMARK INTER:                  -8.450
REMARK INTRA:                  -2.230
REMARK UNBOUND:                -2.757
REMARK SMILES CCCCCCCCCCCCCCCCCC(=O)[O-]
REMARK SMILES IDX 10 1 11 2 12 3 13 4 14 5 15 6 16 7 17 8 18 9 19 10 20 11
REMARK SMILES IDX 9 12 8 13 7 14 6 15 5 16 4 17 3 18 2 19 1 20
REMARK H PARENT
REMARK Flexibility Score: inf
ROOT
ATOM      1  C   UNL     1      84.622 317.360 202.281  1.00  0.00     0.000 C 
ENDROOT
BRANCH   1   2
ATOM      2  C   UNL     1      84.430 315.963 201.672  1.00  0.00     0.000 C 
BRANCH   2   3
ATOM      3  C   UNL     1      85.065 314.844 202.519  1.00  0.00     0.000 C 
BRANCH   3   4
ATOM      4  C   UNL     1      85.983 313.879 201.747  1.00  0.00     0.000 C 
BRANCH   4   5
ATOM      5  C   UNL     1      86.647 314.534 200.524  1.00  0.00     0.000 C 
BRANCH   5   6
ATOM      6  C   UNL     1      87.860 313.745 200.003  1.00  0.00     0.000 C 
BRANCH   6   7
ATOM      7  C   UNL     1      88.761 314.498 199.003  1.00  0.00     0.006 C 
BRANCH   7   8
ATOM      8  C   UNL     1      89.942 315.240 199.655  1.00  0.00     0.053 C 
BRANCH   8   9
ATOM      9  C   UNL     1      90.541 316.278 198.753  1.00  0.00     0.041 C 
ATOM     10  O   UNL     1      91.259 317.196 199.231  1.00  0.00    -0.550 OA
ATOM     11  O   UNL     1      90.343 316.207 197.381  1.00  0.00    -0.550 OA
ENDBRANCH   8   9
ENDBRANCH   7   8
ENDBRANCH   6   7
ENDBRANCH   5   6
ENDBRANCH   4   5
ENDBRANCH   3   4
ENDBRANCH   2   3
ENDBRANCH   1   2
BRANCH   1  12
ATOM     12  C   UNL     1      85.840 317.390 203.211  1.00  0.00     0.000 C 
BRANCH  12  13
ATOM     13  C   UNL     1      85.587 318.303 204.420  1.00  0.00    -0.000 C 
BRANCH  13  14
ATOM     14  C   UNL     1      84.736 317.632 205.514  1.00  0.00    -0.000 C 
BRANCH  14  15
ATOM     15  C   UNL     1      85.027 316.138 205.745  1.00  0.00    -0.000 C 
BRANCH  15  16
ATOM     16  C   UNL     1      86.123 315.897 206.797  1.00  0.00    -0.000 C 
BRANCH  16  17
ATOM     17  C   UNL     1      87.301 315.076 206.245  1.00  0.00    -0.000 C 
BRANCH  17  18
ATOM     18  C   UNL     1      88.327 315.941 205.498  1.00  0.00    -0.000 C 
BRANCH  18  19
ATOM     19  C   UNL     1      88.945 315.168 204.326  1.00  0.00    -0.003 C 
ATOM     20  C   UNL     1      89.036 316.039 203.078  1.00  0.00     0.004 C 
ENDBRANCH  18  19
ENDBRANCH  17  18
ENDBRANCH  16  17
ENDBRANCH  15  16
ENDBRANCH  14  15
ENDBRANCH  13  14
ENDBRANCH  12  13
ENDBRANCH   1  12
TORSDOF 16
ENDMDL
MODEL 3
REMARK VINA RESULT:    -4.093      1.290      2.250
REMARK INTER + INTRA:         -10.680
REMARK INTER:                  -8.125
REMARK INTRA:                  -2.555
REMARK UNBOUND:                -2.757
REMARK SMILES CCCCCCCCCCCCCCCCCC(=O)[O-]
REMARK SMILES IDX 10 1 11 2 12 3 13 4 14 5 15 6 16 7 17 8 18 9 19 10 20 11
REMARK SMILES IDX 9 12 8 13 7 14 6 15 5 16 4 17 3 18 2 19 1 20
REMARK H PARENT
REMARK Flexibility Score: inf
ROOT
ATOM      1  C   UNL     1      85.879 317.479 203.278  1.00  0.00     0.000 C 
ENDROOT
BRANCH   1   2
ATOM      2  C   UNL     1      85.724 318.287 204.575  1.00  0.00     0.000 C 
BRANCH   2   3
ATOM      3  C   UNL     1      84.846 317.579 205.624  1.00  0.00     0.000 C 
BRANCH   3   4
ATOM      4  C   UNL     1      85.060 316.059 205.738  1.00  0.00     0.000 C 
BRANCH   4   5
ATOM      5  C   UNL     1      86.071 315.677 206.833  1.00  0.00     0.000 C 
BRANCH   5   6
ATOM      6  C   UNL     1      87.314 314.960 206.280  1.00  0.00     0.000 C 
BRANCH   6   7
ATOM      7  C   UNL     1      87.037 313.867 205.228  1.00  0.00     0.006 C 
BRANCH   7   8
ATOM      8  C   UNL     1      86.840 312.459 205.820  1.00  0.00     0.053 C 
BRANCH   8   9
ATOM      9  C   UNL     1      85.397 312.053 205.874  1.00  0.00     0.041 C 
ATOM     10  O   UNL     1      85.023 311.146 206.665  1.00  0.00    -0.550 OA
ATOM     11  O   UNL     1      84.459 312.704 205.085  1.00  0.00    -0.550 OA
ENDBRANCH   8   9
ENDBRANCH   7   8
ENDBRANCH   6   7
ENDBRANCH   5   6
ENDBRANCH   4   5
ENDBRANCH   3   4
ENDBRANCH   2   3
ENDBRANCH   1   2
BRANCH   1  12
ATOM     12  C   UNL     1      84.585 317.506 202.456  1.00  0.00     0.000 C 
BRANCH  12  13
ATOM     13  C   UNL     1      84.495 316.284 201.529  1.00  0.00    -0.000 C 
BRANCH  13  14
ATOM     14  C   UNL     1      84.676 314.950 202.275  1.00  0.00    -0.000 C 
BRANCH  14  15
ATOM     15  C   UNL     1      85.937 314.152 201.895  1.00  0.00    -0.000 C 
BRANCH  15  16
ATOM     16  C   UNL     1      86.359 314.361 200.430  1.00  0.00    -0.000 C 
BRANCH  16  17
ATOM     17  C   UNL     1      87.886 314.339 200.248  1.00  0.00    -0.000 C 
BRANCH  17  18
ATOM     18  C   UNL     1      88.639 314.164 201.575  1.00  0.00    -0.000 C 
BRANCH  18  19
ATOM     19  C   UNL     1      89.551 315.367 201.850  1.00  0.00    -0.003 C 
ATOM     20  C   UNL     1      89.211 316.024 203.184  1.00  0.00     0.004 C 
ENDBRANCH  18  19
ENDBRANCH  17  18
ENDBRANCH  16  17
ENDBRANCH  15  16
ENDBRANCH  14  15
ENDBRANCH  13  14
ENDBRANCH  12  13
ENDBRANCH   1  12
TORSDOF 16
ENDMDL
MODEL 4
REMARK VINA RESULT:    -4.044      1.257      3.492
REMARK INTER + INTRA:         -10.585
REMARK INTER:                  -7.918
REMARK INTRA:                  -2.666
REMARK UNBOUND:                -2.757
REMARK SMILES CCCCCCCCCCCCCCCCCC(=O)[O-]
REMARK SMILES IDX 10 1 11 2 12 3 13 4 14 5 15 6 16 7 17 8 18 9 19 10 20 11
REMARK SMILES IDX 9 12 8 13 7 14 6 15 5 16 4 17 3 18 2 19 1 20
REMARK H PARENT
REMARK Flexibility Score: inf
ROOT
ATOM      1  C   UNL     1      85.692 318.306 204.653  1.00  0.00     0.000 C 
ENDROOT
BRANCH   1   2
ATOM      2  C   UNL     1      85.889 317.629 203.289  1.00  0.00     0.000 C 
BRANCH   2   3
ATOM      3  C   UNL     1      84.579 317.493 202.489  1.00  0.00     0.000 C 
BRANCH   3   4
ATOM      4  C   UNL     1      84.486 316.244 201.594  1.00  0.00     0.000 C 
BRANCH   4   5
ATOM      5  C   UNL     1      84.647 314.931 202.379  1.00  0.00     0.000 C 
BRANCH   5   6
ATOM      6  C   UNL     1      86.031 314.286 202.194  1.00  0.00     0.000 C 
BRANCH   6   7
ATOM      7  C   UNL     1      86.343 313.105 203.135  1.00  0.00     0.006 C 
BRANCH   7   8
ATOM      8  C   UNL     1      85.266 312.851 204.205  1.00  0.00     0.053 C 
BRANCH   8   9
ATOM      9  C   UNL     1      85.733 311.922 205.286  1.00  0.00     0.041 C 
ATOM     10  O   UNL     1      86.964 311.711 205.453  1.00  0.00    -0.550 OA
ATOM     11  O   UNL     1      84.813 311.324 206.137  1.00  0.00    -0.550 OA
ENDBRANCH   8   9
ENDBRANCH   7   8
ENDBRANCH   6   7
ENDBRANCH   5   6
ENDBRANCH   4   5
ENDBRANCH   3   4
ENDBRANCH   2   3
ENDBRANCH   1   2
BRANCH   1  12
ATOM     12  C   UNL     1      84.696 317.522 205.516  1.00  0.00     0.000 C 
BRANCH  12  13
ATOM     13  C   UNL     1      85.139 316.060 205.677  1.00  0.00    -0.000 C 
BRANCH  13  14
ATOM     14  C   UNL     1      86.317 315.892 206.655  1.00  0.00    -0.000 C 
BRANCH  14  15
ATOM     15  C   UNL     1      87.548 315.170 206.080  1.00  0.00    -0.000 C 
BRANCH  15  16
ATOM     16  C   UNL     1      88.488 316.111 205.305  1.00  0.00    -0.000 C 
BRANCH  16  17
ATOM     17  C   UNL     1      89.402 315.355 204.326  1.00  0.00    -0.000 C 
BRANCH  17  18
ATOM     18  C   UNL     1      89.294 315.882 202.887  1.00  0.00    -0.000 C 
BRANCH  18  19
ATOM     19  C   UNL     1      89.979 314.926 201.902  1.00  0.00    -0.003 C 
ATOM     20  C   UNL     1      89.295 314.956 200.539  1.00  0.00     0.004 C 
ENDBRANCH  18  19
ENDBRANCH  17  18
ENDBRANCH  16  17
ENDBRANCH  15  16
ENDBRANCH  14  15
ENDBRANCH  13  14
ENDBRANCH  12  13
ENDBRANCH   1  12
TORSDOF 16
ENDMDL
MODEL 5
REMARK VINA RESULT:    -3.991      2.800      4.854
REMARK INTER + INTRA:         -10.481
REMARK INTER:                  -8.017
REMARK INTRA:                  -2.464
REMARK UNBOUND:                -2.757
REMARK SMILES CCCCCCCCCCCCCCCCCC(=O)[O-]
REMARK SMILES IDX 10 1 11 2 12 3 13 4 14 5 15 6 16 7 17 8 18 9 19 10 20 11
REMARK SMILES IDX 9 12 8 13 7 14 6 15 5 16 4 17 3 18 2 19 1 20
REMARK H PARENT
REMARK Flexibility Score: inf
ROOT
ATOM      1  C   UNL     1      85.914 317.372 203.331  1.00  0.00     0.000 C 
ENDROOT
BRANCH   1   2
ATOM      2  C   UNL     1      84.722 317.483 202.369  1.00  0.00     0.000 C 
BRANCH   2   3
ATOM      3  C   UNL     1      84.433 316.172 201.614  1.00  0.00     0.000 C 
BRANCH   3   4
ATOM      4  C   UNL     1      84.693 314.884 202.416  1.00  0.00     0.000 C 
BRANCH   4   5
ATOM      5  C   UNL     1      85.873 314.064 201.867  1.00  0.00     0.000 C 
BRANCH   5   6
ATOM      6  C   UNL     1      87.046 313.960 202.856  1.00  0.00     0.000 C 
BRANCH   6   7
ATOM      7  C   UNL     1      88.393 313.524 202.245  1.00  0.00     0.006 C 
BRANCH   7   8
ATOM      8  C   UNL     1      89.343 314.691 201.919  1.00  0.00     0.053 C 
BRANCH   8   9
ATOM      9  C   UNL     1      89.424 314.977 200.449  1.00  0.00     0.041 C 
ATOM     10  O   UNL     1      90.285 315.783 200.005  1.00  0.00    -0.550 OA
ATOM     11  O   UNL     1      88.580 314.320 199.564  1.00  0.00    -0.550 OA
ENDBRANCH   8   9
ENDBRANCH   7   8
ENDBRANCH   6   7
ENDBRANCH   5   6
ENDBRANCH   4   5
ENDBRANCH   3   4
ENDBRANCH   2   3
ENDBRANCH   1   2
BRANCH   1  12
ATOM     12  C   UNL     1      85.710 318.263 204.562  1.00  0.00     0.000 C 
BRANCH  12  13
ATOM     13  C   UNL     1      84.739 317.611 205.559  1.00  0.00    -0.000 C 
BRANCH  13  14
ATOM     14  C   UNL     1      85.027 316.117 205.789  1.00  0.00    -0.000 C 
BRANCH  14  15
ATOM     15  C   UNL     1      86.165 315.815 206.782  1.00  0.00    -0.000 C 
BRANCH  15  16
ATOM     16  C   UNL     1      86.900 314.500 206.468  1.00  0.00    -0.000 C 
BRANCH  16  17
ATOM     17  C   UNL     1      88.400 314.711 206.204  1.00  0.00    -0.000 C 
BRANCH  17  18
ATOM     18  C   UNL     1      88.695 316.042 205.497  1.00  0.00    -0.000 C 
BRANCH  18  19
ATOM     19  C   UNL     1      90.206 316.254 205.338  1.00  0.00    -0.003 C 
ATOM     20  C   UNL     1      90.847 316.669 206.659  1.00  0.00     0.004 C 
ENDBRANCH  18  19
ENDBRANCH  17  18
ENDBRANCH  16  17
ENDBRANCH  15  16
ENDBRANCH  14  15
ENDBRANCH  13  14
ENDBRANCH  12  13
ENDBRANCH   1  12
TORSDOF 16
ENDMDL
MODEL 6
REMARK VINA RESULT:    -3.991      2.850      4.839
REMARK INTER + INTRA:         -10.481
REMARK INTER:                  -7.898
REMARK INTRA:                  -2.583
REMARK UNBOUND:                -2.757
REMARK SMILES CCCCCCCCCCCCCCCCCC(=O)[O-]
REMARK SMILES IDX 10 1 11 2 12 3 13 4 14 5 15 6 16 7 17 8 18 9 19 10 20 11
REMARK SMILES IDX 9 12 8 13 7 14 6 15 5 16 4 17 3 18 2 19 1 20
REMARK H PARENT
REMARK Flexibility Score: inf
ROOT
ATOM      1  C   UNL     1      85.645 318.291 204.705  1.00  0.00     0.000 C 
ENDROOT
BRANCH   1   2
ATOM      2  C   UNL     1      85.779 317.777 203.264  1.00  0.00     0.000 C 
BRANCH   2   3
ATOM      3  C   UNL     1      84.419 317.541 202.580  1.00  0.00     0.000 C 
BRANCH   3   4
ATOM      4  C   UNL     1      84.354 316.310 201.659  1.00  0.00     0.000 C 
BRANCH   4   5
ATOM      5  C   UNL     1      84.602 314.989 202.406  1.00  0.00     0.000 C 
BRANCH   5   6
ATOM      6  C   UNL     1      85.846 314.237 201.904  1.00  0.00     0.000 C 
BRANCH   6   7
ATOM      7  C   UNL     1      86.290 314.576 200.467  1.00  0.00     0.006 C 
BRANCH   7   8
ATOM      8  C   UNL     1      86.930 313.397 199.711  1.00  0.00     0.053 C 
BRANCH   8   9
ATOM      9  C   UNL     1      88.269 313.742 199.129  1.00  0.00     0.041 C 
ATOM     10  O   UNL     1      88.898 314.753 199.539  1.00  0.00    -0.550 OA
ATOM     11  O   UNL     1      88.841 312.923 198.164  1.00  0.00    -0.550 OA
ENDBRANCH   8   9
ENDBRANCH   7   8
ENDBRANCH   6   7
ENDBRANCH   5   6
ENDBRANCH   4   5
ENDBRANCH   3   4
ENDBRANCH   2   3
ENDBRANCH   1   2
BRANCH   1  12
ATOM     12  C   UNL     1      84.798 317.335 205.553  1.00  0.00     0.000 C 
BRANCH  12  13
ATOM     13  C   UNL     1      85.689 316.391 206.375  1.00  0.00    -0.000 C 
BRANCH  13  14
ATOM     14  C   UNL     1      85.747 314.965 205.798  1.00  0.00    -0.000 C 
BRANCH  14  15
ATOM     15  C   UNL     1      87.148 314.487 205.374  1.00  0.00    -0.000 C 
BRANCH  15  16
ATOM     16  C   UNL     1      88.271 315.426 205.848  1.00  0.00    -0.000 C 
BRANCH  16  17
ATOM     17  C   UNL     1      88.830 316.298 204.711  1.00  0.00    -0.000 C 
BRANCH  17  18
ATOM     18  C   UNL     1      88.710 315.626 203.335  1.00  0.00    -0.000 C 
BRANCH  18  19
ATOM     19  C   UNL     1      90.095 315.330 202.748  1.00  0.00    -0.003 C 
ATOM     20  C   UNL     1      91.002 316.553 202.829  1.00  0.00     0.004 C 
ENDBRANCH  18  19
ENDBRANCH  17  18
ENDBRANCH  16  17
ENDBRANCH  15  16
ENDBRANCH  14  15
ENDBRANCH  13  14
ENDBRANCH  12  13
ENDBRANCH   1  12
TORSDOF 16
ENDMDL
MODEL 7
REMARK VINA RESULT:    -3.963      1.973      4.174
REMARK INTER + INTRA:         -10.427
REMARK INTER:                  -7.697
REMARK INTRA:                  -2.730
REMARK UNBOUND:                -2.757
REMARK SMILES CCCCCCCCCCCCCCCCCC(=O)[O-]
REMARK SMILES IDX 10 1 11 2 12 3 13 4 14 5 15 6 16 7 17 8 18 9 19 10 20 11
REMARK SMILES IDX 9 12 8 13 7 14 6 15 5 16 4 17 3 18 2 19 1 20
REMARK H PARENT
REMARK Flexibility Score: inf
ROOT
ATOM      1  C   UNL     1      85.400 316.515 206.336  1.00  0.00     0.000 C 
ENDROOT
BRANCH   1   2
ATOM      2  C   UNL     1      84.747 317.527 205.384  1.00  0.00     0.000 C 
BRANCH   2   3
ATOM      3  C   UNL     1      85.762 318.223 204.457  1.00  0.00     0.000 C 
BRANCH   3   4
ATOM      4  C   UNL     1      85.692 317.804 202.978  1.00  0.00     0.000 C 
BRANCH   4   5
ATOM      5  C   UNL     1      84.269 317.438 202.526  1.00  0.00     0.000 C 
BRANCH   5   6
ATOM      6  C   UNL     1      84.227 316.201 201.613  1.00  0.00     0.000 C 
BRANCH   6   7
ATOM      7  C   UNL     1      85.524 315.370 201.562  1.00  0.00     0.006 C 
BRANCH   7   8
ATOM      8  C   UNL     1      85.427 314.005 202.270  1.00  0.00     0.053 C 
BRANCH   8   9
ATOM      9  C   UNL     1      86.427 313.014 201.754  1.00  0.00     0.041 C 
ATOM     10  O   UNL     1      87.169 312.386 202.555  1.00  0.00    -0.550 OA
ATOM     11  O   UNL     1      86.509 312.750 200.393  1.00  0.00    -0.550 OA
ENDBRANCH   8   9
ENDBRANCH   7   8
ENDBRANCH   6   7
ENDBRANCH   5   6
ENDBRANCH   4   5
ENDBRANCH   3   4
ENDBRANCH   2   3
ENDBRANCH   1   2
BRANCH   1  12
ATOM     12  C   UNL     1      85.366 315.101 205.743  1.00  0.00     0.000 C 
BRANCH  12  13
ATOM     13  C   UNL     1      86.782 314.518 205.627  1.00  0.00    -0.000 C 
BRANCH  13  14
ATOM     14  C   UNL     1      87.868 315.461 206.177  1.00  0.00    -0.000 C 
BRANCH  14  15
ATOM     15  C   UNL     1      88.791 316.087 205.116  1.00  0.00    -0.000 C 
BRANCH  15  16
ATOM     16  C   UNL     1      88.429 315.663 203.682  1.00  0.00    -0.000 C 
BRANCH  16  17
ATOM     17  C   UNL     1      89.624 315.054 202.928  1.00  0.00    -0.000 C 
BRANCH  17  18
ATOM     18  C   UNL     1      90.381 316.089 202.082  1.00  0.00    -0.000 C 
BRANCH  18  19
ATOM     19  C   UNL     1      90.611 315.569 200.658  1.00  0.00    -0.003 C 
ATOM     20  C   UNL     1      89.371 314.860 200.122  1.00  0.00     0.004 C 
ENDBRANCH  18  19
ENDBRANCH  17  18
ENDBRANCH  16  17
ENDBRANCH  15  16
ENDBRANCH  14  15
ENDBRANCH  13  14
ENDBRANCH  12  13
ENDBRANCH   1  12
TORSDOF 16
ENDMDL
MODEL 8
REMARK VINA RESULT:    -3.951      1.430      2.712
REMARK INTER + INTRA:         -10.404
REMARK INTER:                  -7.888
REMARK INTRA:                  -2.517
REMARK UNBOUND:                -2.757
REMARK SMILES CCCCCCCCCCCCCCCCCC(=O)[O-]
REMARK SMILES IDX 10 1 11 2 12 3 13 4 14 5 15 6 16 7 17 8 18 9 19 10 20 11
REMARK SMILES IDX 9 12 8 13 7 14 6 15 5 16 4 17 3 18 2 19 1 20
REMARK H PARENT
REMARK Flexibility Score: inf
ROOT
ATOM      1  C   UNL     1      85.124 318.055 204.976  1.00  0.00     0.000 C 
ENDROOT
BRANCH   1   2
ATOM      2  C   UNL     1      85.444 317.044 206.087  1.00  0.00     0.000 C 
BRANCH   2   3
ATOM      3  C   UNL     1      84.921 315.628 205.781  1.00  0.00     0.000 C 
BRANCH   3   4
ATOM      4  C   UNL     1      85.326 314.546 206.799  1.00  0.00     0.000 C 
BRANCH   4   5
ATOM      5  C   UNL     1      84.281 313.426 206.930  1.00  0.00     0.000 C 
BRANCH   5   6
ATOM      6  C   UNL     1      84.889 312.018 206.814  1.00  0.00     0.000 C 
BRANCH   6   7
ATOM      7  C   UNL     1      83.875 310.868 206.651  1.00  0.00     0.006 C 
BRANCH   7   8
ATOM      8  C   UNL     1      83.886 310.212 205.258  1.00  0.00     0.053 C 
BRANCH   8   9
ATOM      9  C   UNL     1      84.380 308.797 205.289  1.00  0.00     0.041 C 
ATOM     10  O   UNL     1      85.226 308.439 206.152  1.00  0.00    -0.550 OA
ATOM     11  O   UNL     1      83.876 307.862 204.394  1.00  0.00    -0.550 OA
ENDBRANCH   8   9
ENDBRANCH   7   8
ENDBRANCH   6   7
ENDBRANCH   5   6
ENDBRANCH   4   5
ENDBRANCH   3   4
ENDBRANCH   2   3
ENDBRANCH   1   2
BRANCH   1  12
ATOM     12  C   UNL     1      85.713 317.601 203.635  1.00  0.00     0.000 C 
BRANCH  12  13
ATOM     13  C   UNL     1      84.622 317.515 202.556  1.00  0.00    -0.000 C 
BRANCH  13  14
ATOM     14  C   UNL     1      84.502 316.112 201.933  1.00  0.00    -0.000 C 
BRANCH  14  15
ATOM     15  C   UNL     1      85.769 315.242 202.029  1.00  0.00    -0.000 C 
BRANCH  15  16
ATOM     16  C   UNL     1      85.514 313.886 202.710  1.00  0.00    -0.000 C 
BRANCH  16  17
ATOM     17  C   UNL     1      86.738 313.379 203.491  1.00  0.00    -0.000 C 
BRANCH  17  18
ATOM     18  C   UNL     1      87.873 314.413 203.550  1.00  0.00    -0.000 C 
BRANCH  18  19
ATOM     19  C   UNL     1      88.382 314.585 204.987  1.00  0.00    -0.003 C 
ATOM     20  C   UNL     1      88.884 316.004 205.229  1.00  0.00     0.004 C 
ENDBRANCH  18  19
ENDBRANCH  17  18
ENDBRANCH  16  17
ENDBRANCH  15  16
ENDBRANCH  14  15
ENDBRANCH  13  14
ENDBRANCH  12  13
ENDBRANCH   1  12
TORSDOF 16
ENDMDL
MODEL 9
REMARK VINA RESULT:    -3.942      2.385      5.060
REMARK INTER + INTRA:         -10.388
REMARK INTER:                  -7.714
REMARK INTRA:                  -2.673
REMARK UNBOUND:                -2.757
REMARK SMILES CCCCCCCCCCCCCCCCCC(=O)[O-]
REMARK SMILES IDX 10 1 11 2 12 3 13 4 14 5 15 6 16 7 17 8 18 9 19 10 20 11
REMARK SMILES IDX 9 12 8 13 7 14 6 15 5 16 4 17 3 18 2 19 1 20
REMARK H PARENT
REMARK Flexibility Score: inf
ROOT
ATOM      1  C   UNL     1      85.723 317.783 203.407  1.00  0.00     0.000 C 
ENDROOT
BRANCH   1   2
ATOM      2  C   UNL     1      84.497 317.556 202.511  1.00  0.00     0.000 C 
BRANCH   2   3
ATOM      3  C   UNL     1      84.567 316.238 201.717  1.00  0.00     0.000 C 
BRANCH   3   4
ATOM      4  C   UNL     1      84.963 314.999 202.539  1.00  0.00     0.000 C 
BRANCH   4   5
ATOM      5  C   UNL     1      85.907 314.052 201.778  1.00  0.00     0.000 C 
BRANCH   5   6
ATOM      6  C   UNL     1      87.375 314.510 201.814  1.00  0.00     0.000 C 
BRANCH   6   7
ATOM      7  C   UNL     1      87.960 314.754 203.219  1.00  0.00     0.006 C 
BRANCH   7   8
ATOM      8  C   UNL     1      88.869 315.993 203.317  1.00  0.00     0.053 C 
BRANCH   8   9
ATOM      9  C   UNL     1      89.870 315.889 204.428  1.00  0.00     0.041 C 
ATOM     10  O   UNL     1      89.591 316.324 205.578  1.00  0.00    -0.550 OA
ATOM     11  O   UNL     1      91.095 315.274 204.207  1.00  0.00    -0.550 OA
ENDBRANCH   8   9
ENDBRANCH   7   8
ENDBRANCH   6   7
ENDBRANCH   5   6
ENDBRANCH   4   5
ENDBRANCH   3   4
ENDBRANCH   2   3
ENDBRANCH   1   2
BRANCH   1  12
ATOM     12  C   UNL     1      85.301 318.207 204.819  1.00  0.00     0.000 C 
BRANCH  12  13
ATOM     13  C   UNL     1      84.951 316.983 205.680  1.00  0.00    -0.000 C 
BRANCH  13  14
ATOM     14  C   UNL     1      86.178 316.118 206.022  1.00  0.00    -0.000 C 
BRANCH  14  15
ATOM     15  C   UNL     1      85.867 314.800 206.754  1.00  0.00    -0.000 C 
BRANCH  15  16
ATOM     16  C   UNL     1      84.602 314.104 206.222  1.00  0.00    -0.000 C 
BRANCH  16  17
ATOM     17  C   UNL     1      84.911 312.760 205.540  1.00  0.00    -0.000 C 
BRANCH  17  18
ATOM     18  C   UNL     1      86.393 312.370 205.644  1.00  0.00    -0.000 C 
BRANCH  18  19
ATOM     19  C   UNL     1      86.546 310.938 206.173  1.00  0.00    -0.003 C 
ATOM     20  C   UNL     1      85.345 310.531 207.020  1.00  0.00     0.004 C 
ENDBRANCH  18  19
ENDBRANCH  17  18
ENDBRANCH  16  17
ENDBRANCH  15  16
ENDBRANCH  14  15
ENDBRANCH  13  14
ENDBRANCH  12  13
ENDBRANCH   1  12
TORSDOF 16
ENDMDL
