MODEL 1
REMARK VINA RESULT:    -6.270      0.000      0.000
REMARK INTER + INTRA:         -11.266
REMARK INTER:                 -10.668
REMARK INTRA:                  -0.597
REMARK UNBOUND:                -0.597
REMARK SMILES CCCCCCCCCCCCCC(=O)[O-]
REMARK SMILES IDX 8 1 9 2 10 3 11 4 12 5 13 6 14 7 15 8 16 9 7 10 6 11 5 12
REMARK SMILES IDX 4 13 3 14 2 15 1 16
REMARK H PARENT
REMARK Flexibility Score: inf
ROOT
ATOM      1  C   UNL     1      30.624  -9.242  20.951  1.00  0.00     0.000 C 
ENDROOT
BRANCH   1   2
ATOM      2  C   UNL     1      32.057  -8.955  21.427  1.00  0.00     0.000 C 
BRANCH   2   3
ATOM      3  C   UNL     1      33.078  -9.002  20.278  1.00  0.00     0.000 C 
BRANCH   3   4
ATOM      4  C   UNL     1      34.509  -9.310  20.759  1.00  0.00     0.000 C 
BRANCH   4   5
ATOM      5  C   UNL     1      34.815  -8.886  22.207  1.00  0.00     0.006 C 
BRANCH   5   6
ATOM      6  C   UNL     1      35.582  -7.561  22.293  1.00  0.00     0.053 C 
BRANCH   6   7
ATOM      7  C   UNL     1      36.945  -7.783  22.871  1.00  0.00     0.041 C 
ATOM      8  O   UNL     1      37.330  -7.109  23.863  1.00  0.00    -0.550 OA
ATOM      9  O   UNL     1      37.769  -8.770  22.348  1.00  0.00    -0.550 OA
ENDBRANCH   6   7
ENDBRANCH   5   6
ENDBRANCH   4   5
ENDBRANCH   3   4
ENDBRANCH   2   3
ENDBRANCH   1   2
BRANCH   1  10
ATOM     10  C   UNL     1      29.629  -9.355  22.119  1.00  0.00     0.000 C 
BRANCH  10  11
ATOM     11  C   UNL     1      28.545 -10.424  21.882  1.00  0.00    -0.000 C 
BRANCH  11  12
ATOM     12  C   UNL     1      27.379  -9.987  20.975  1.00  0.00    -0.000 C 
BRANCH  12  13
ATOM     13  C   UNL     1      26.791 -11.148  20.154  1.00  0.00    -0.000 C 
BRANCH  13  14
ATOM     14  C   UNL     1      27.736 -12.359  20.085  1.00  0.00    -0.000 C 
BRANCH  14  15
ATOM     15  C   UNL     1      27.232 -13.450  19.128  1.00  0.00    -0.003 C 
ATOM     16  C   UNL     1      26.368 -12.852  18.022  1.00  0.00     0.004 C 
ENDBRANCH  14  15
ENDBRANCH  13  14
ENDBRANCH  12  13
ENDBRANCH  11  12
ENDBRANCH  10  11
ENDBRANCH   1  10
TORSDOF 12
ENDMDL
MODEL 2
REMARK VINA RESULT:    -6.222      1.542      1.886
REMARK INTER + INTRA:         -11.185
REMARK INTER:                 -10.775
REMARK INTRA:                  -0.410
REMARK UNBOUND:                -0.597
REMARK SMILES CCCCCCCCCCCCCC(=O)[O-]
REMARK SMILES IDX 8 1 9 2 10 3 11 4 12 5 13 6 14 7 15 8 16 9 7 10 6 11 5 12
REMARK SMILES IDX 4 13 3 14 2 15 1 16
REMARK H PARENT
REMARK Flexibility Score: inf
ROOT
ATOM      1  C   UNL     1      31.076  -9.178  22.043  1.00  0.00     0.000 C 
ENDROOT
BRANCH   1   2
ATOM      2  C   UNL     1      32.115  -8.110  21.663  1.00  0.00     0.000 C 
BRANCH   2   3
ATOM      3  C   UNL     1      33.208  -8.660  20.730  1.00  0.00     0.000 C 
BRANCH   3   4
ATOM      4  C   UNL     1      34.630  -8.456  21.287  1.00  0.00     0.000 C 
BRANCH   4   5
ATOM      5  C   UNL     1      35.584  -9.648  21.091  1.00  0.00     0.006 C 
BRANCH   5   6
ATOM      6  C   UNL     1      36.920  -9.471  21.823  1.00  0.00     0.053 C 
BRANCH   6   7
ATOM      7  C   UNL     1      37.933 -10.443  21.304  1.00  0.00     0.041 C 
ATOM      8  O   UNL     1      39.154 -10.286  21.566  1.00  0.00    -0.550 OA
ATOM      9  O   UNL     1      37.523 -11.549  20.572  1.00  0.00    -0.550 OA
ENDBRANCH   6   7
ENDBRANCH   5   6
ENDBRANCH   4   5
ENDBRANCH   3   4
ENDBRANCH   2   3
ENDBRANCH   1   2
BRANCH   1  10
ATOM     10  C   UNL     1      30.080  -9.459  20.906  1.00  0.00     0.000 C 
BRANCH  10  11
ATOM     11  C   UNL     1      28.612  -9.413  21.370  1.00  0.00    -0.000 C 
BRANCH  11  12
ATOM     12  C   UNL     1      27.963 -10.784  21.634  1.00  0.00    -0.000 C 
BRANCH  12  13
ATOM     13  C   UNL     1      27.355 -11.414  20.368  1.00  0.00    -0.000 C 
BRANCH  13  14
ATOM     14  C   UNL     1      27.970 -12.783  20.037  1.00  0.00    -0.000 C 
BRANCH  14  15
ATOM     15  C   UNL     1      27.140 -13.573  19.015  1.00  0.00    -0.003 C 
ATOM     16  C   UNL     1      26.315 -12.637  18.137  1.00  0.00     0.004 C 
ENDBRANCH  14  15
ENDBRANCH  13  14
ENDBRANCH  12  13
ENDBRANCH  11  12
ENDBRANCH  10  11
ENDBRANCH   1  10
TORSDOF 12
ENDMDL
MODEL 3
REMARK VINA RESULT:    -6.220      6.430      7.384
REMARK INTER + INTRA:         -11.180
REMARK INTER:                 -10.391
REMARK INTRA:                  -0.789
REMARK UNBOUND:                -0.597
REMARK SMILES CCCCCCCCCCCCCC(=O)[O-]
REMARK SMILES IDX 8 1 9 2 10 3 11 4 12 5 13 6 14 7 15 8 16 9 7 10 6 11 5 12
REMARK SMILES IDX 4 13 3 14 2 15 1 16
REMARK H PARENT
REMARK Flexibility Score: inf
ROOT
ATOM      1  C   UNL     1      25.321  -8.273  19.987  1.00  0.00     0.000 C 
ENDROOT
BRANCH   1   2
ATOM      2  C   UNL     1      25.221  -6.939  19.229  1.00  0.00     0.000 C 
BRANCH   2   3
ATOM      3  C   UNL     1      26.330  -5.952  19.629  1.00  0.00     0.000 C 
BRANCH   3   4
ATOM      4  C   UNL     1      27.398  -5.774  18.534  1.00  0.00     0.000 C 
BRANCH   4   5
ATOM      5  C   UNL     1      27.852  -4.323  18.293  1.00  0.00     0.006 C 
BRANCH   5   6
ATOM      6  C   UNL     1      28.023  -3.527  19.593  1.00  0.00     0.053 C 
BRANCH   6   7
ATOM      7  C   UNL     1      27.052  -2.388  19.639  1.00  0.00     0.041 C 
ATOM      8  O   UNL     1      26.106  -2.396  20.470  1.00  0.00    -0.550 OA
ATOM      9  O   UNL     1      27.222  -1.296  18.799  1.00  0.00    -0.550 OA
ENDBRANCH   6   7
ENDBRANCH   5   6
ENDBRANCH   4   5
ENDBRANCH   3   4
ENDBRANCH   2   3
ENDBRANCH   1   2
BRANCH   1  10
ATOM     10  C   UNL     1      26.573  -9.078  19.599  1.00  0.00     0.000 C 
BRANCH  10  11
ATOM     11  C   UNL     1      27.596  -9.186  20.745  1.00  0.00    -0.000 C 
BRANCH  11  12
ATOM     12  C   UNL     1      27.967 -10.622  21.161  1.00  0.00    -0.000 C 
BRANCH  12  13
ATOM     13  C   UNL     1      27.116 -11.690  20.452  1.00  0.00    -0.000 C 
BRANCH  13  14
ATOM     14  C   UNL     1      27.958 -12.872  19.945  1.00  0.00    -0.000 C 
BRANCH  14  15
ATOM     15  C   UNL     1      27.410 -13.474  18.642  1.00  0.00    -0.003 C 
ATOM     16  C   UNL     1      26.276 -12.623  18.080  1.00  0.00     0.004 C 
ENDBRANCH  14  15
ENDBRANCH  13  14
ENDBRANCH  12  13
ENDBRANCH  11  12
ENDBRANCH  10  11
ENDBRANCH   1  10
TORSDOF 12
ENDMDL
MODEL 4
REMARK VINA RESULT:    -6.170      2.322      2.923
REMARK INTER + INTRA:         -11.095
REMARK INTER:                 -10.799
REMARK INTRA:                  -0.296
REMARK UNBOUND:                -0.597
REMARK SMILES CCCCCCCCCCCCCC(=O)[O-]
REMARK SMILES IDX 8 1 9 2 10 3 11 4 12 5 13 6 14 7 15 8 16 9 7 10 6 11 5 12
REMARK SMILES IDX 4 13 3 14 2 15 1 16
REMARK H PARENT
REMARK Flexibility Score: inf
ROOT
ATOM      1  C   UNL     1      32.227  -8.710  21.309  1.00  0.00     0.000 C 
ENDROOT
BRANCH   1   2
ATOM      2  C   UNL     1      33.364  -9.126  20.361  1.00  0.00     0.000 C 
BRANCH   2   3
ATOM      3  C   UNL     1      34.732  -9.165  21.066  1.00  0.00     0.000 C 
BRANCH   3   4
ATOM      4  C   UNL     1      35.631 -10.311  20.565  1.00  0.00     0.000 C 
BRANCH   4   5
ATOM      5  C   UNL     1      36.985 -10.440  21.286  1.00  0.00     0.006 C 
BRANCH   5   6
ATOM      6  C   UNL     1      38.020 -11.233  20.478  1.00  0.00     0.053 C 
BRANCH   6   7
ATOM      7  C   UNL     1      38.905 -12.021  21.392  1.00  0.00     0.041 C 
ATOM      8  O   UNL     1      39.764 -12.809  20.918  1.00  0.00    -0.550 OA
ATOM      9  O   UNL     1      38.814 -11.846  22.767  1.00  0.00    -0.550 OA
ENDBRANCH   6   7
ENDBRANCH   5   6
ENDBRANCH   4   5
ENDBRANCH   3   4
ENDBRANCH   2   3
ENDBRANCH   1   2
BRANCH   1  10
ATOM     10  C   UNL     1      30.859  -9.250  20.857  1.00  0.00     0.000 C 
BRANCH  10  11
ATOM     11  C   UNL     1      29.836  -9.326  22.005  1.00  0.00    -0.000 C 
BRANCH  11  12
ATOM     12  C   UNL     1      28.394  -9.659  21.578  1.00  0.00    -0.000 C 
BRANCH  12  13
ATOM     13  C   UNL     1      28.169 -11.164  21.347  1.00  0.00    -0.000 C 
BRANCH  13  14
ATOM     14  C   UNL     1      27.199 -11.443  20.187  1.00  0.00    -0.000 C 
BRANCH  14  15
ATOM     15  C   UNL     1      27.441 -12.811  19.530  1.00  0.00    -0.003 C 
ATOM     16  C   UNL     1      26.561 -12.989  18.296  1.00  0.00     0.004 C 
ENDBRANCH  14  15
ENDBRANCH  13  14
ENDBRANCH  12  13
ENDBRANCH  11  12
ENDBRANCH  10  11
ENDBRANCH   1  10
TORSDOF 12
ENDMDL
MODEL 5
REMARK VINA RESULT:    -6.096      5.591      6.879
REMARK INTER + INTRA:         -10.970
REMARK INTER:                  -9.796
REMARK INTRA:                  -1.174
REMARK UNBOUND:                -0.597
REMARK SMILES CCCCCCCCCCCCCC(=O)[O-]
REMARK SMILES IDX 8 1 9 2 10 3 11 4 12 5 13 6 14 7 15 8 16 9 7 10 6 11 5 12
REMARK SMILES IDX 4 13 3 14 2 15 1 16
REMARK H PARENT
REMARK Flexibility Score: inf
ROOT
ATOM      1  C   UNL     1      28.775  -8.458  20.446  1.00  0.00     0.000 C 
ENDROOT
BRANCH   1   2
ATOM      2  C   UNL     1      27.712  -7.766  19.576  1.00  0.00     0.000 C 
BRANCH   2   3
ATOM      3  C   UNL     1      26.428  -7.445  20.361  1.00  0.00     0.000 C 
BRANCH   3   4
ATOM      4  C   UNL     1      25.865  -6.047  20.043  1.00  0.00     0.000 C 
BRANCH   4   5
ATOM      5  C   UNL     1      26.476  -4.896  20.861  1.00  0.00     0.006 C 
BRANCH   5   6
ATOM      6  C   UNL     1      27.762  -4.336  20.239  1.00  0.00     0.053 C 
BRANCH   6   7
ATOM      7  C   UNL     1      27.515  -3.912  18.826  1.00  0.00     0.041 C 
ATOM      8  O   UNL     1      28.101  -4.498  17.877  1.00  0.00    -0.550 OA
ATOM      9  O   UNL     1      26.601  -2.903  18.552  1.00  0.00    -0.550 OA
ENDBRANCH   6   7
ENDBRANCH   5   6
ENDBRANCH   4   5
ENDBRANCH   3   4
ENDBRANCH   2   3
ENDBRANCH   1   2
BRANCH   1  10
ATOM     10  C   UNL     1      28.218  -8.906  21.808  1.00  0.00     0.000 C 
BRANCH  10  11
ATOM     11  C   UNL     1      28.473 -10.397  22.099  1.00  0.00    -0.000 C 
BRANCH  11  12
ATOM     12  C   UNL     1      28.102 -11.361  20.957  1.00  0.00    -0.000 C 
BRANCH  12  13
ATOM     13  C   UNL     1      26.625 -11.256  20.539  1.00  0.00    -0.000 C 
BRANCH  13  14
ATOM     14  C   UNL     1      26.421 -11.480  19.032  1.00  0.00    -0.000 C 
BRANCH  14  15
ATOM     15  C   UNL     1      26.079 -12.938  18.690  1.00  0.00    -0.003 C 
ATOM     16  C   UNL     1      27.300 -13.677  18.152  1.00  0.00     0.004 C 
ENDBRANCH  14  15
ENDBRANCH  13  14
ENDBRANCH  12  13
ENDBRANCH  11  12
ENDBRANCH  10  11
ENDBRANCH   1  10
TORSDOF 12
ENDMDL
MODEL 6
REMARK VINA RESULT:    -5.950      1.112      1.662
REMARK INTER + INTRA:         -10.721
REMARK INTER:                 -10.240
REMARK INTRA:                  -0.481
REMARK UNBOUND:                -0.597
REMARK SMILES CCCCCCCCCCCCCC(=O)[O-]
REMARK SMILES IDX 8 1 9 2 10 3 11 4 12 5 13 6 14 7 15 8 16 9 7 10 6 11 5 12
REMARK SMILES IDX 4 13 3 14 2 15 1 16
REMARK H PARENT
REMARK Flexibility Score: inf
ROOT
ATOM      1  C   UNL     1      31.836  -9.246  20.541  1.00  0.00     0.000 C 
ENDROOT
BRANCH   1   2
ATOM      2  C   UNL     1      33.290  -8.790  20.333  1.00  0.00     0.000 C 
BRANCH   2   3
ATOM      3  C   UNL     1      34.191  -9.922  19.809  1.00  0.00     0.000 C 
BRANCH   3   4
ATOM      4  C   UNL     1      35.510 -10.049  20.593  1.00  0.00     0.000 C 
BRANCH   4   5
ATOM      5  C   UNL     1      35.756  -8.948  21.640  1.00  0.00     0.006 C 
BRANCH   5   6
ATOM      6  C   UNL     1      37.185  -8.960  22.198  1.00  0.00     0.053 C 
BRANCH   6   7
ATOM      7  C   UNL     1      37.250  -8.194  23.482  1.00  0.00     0.041 C 
ATOM      8  O   UNL     1      37.355  -6.939  23.466  1.00  0.00    -0.550 OA
ATOM      9  O   UNL     1      37.146  -8.860  24.695  1.00  0.00    -0.550 OA
ENDBRANCH   6   7
ENDBRANCH   5   6
ENDBRANCH   4   5
ENDBRANCH   3   4
ENDBRANCH   2   3
ENDBRANCH   1   2
BRANCH   1  10
ATOM     10  C   UNL     1      31.341  -8.993  21.975  1.00  0.00     0.000 C 
BRANCH  10  11
ATOM     11  C   UNL     1      29.844  -9.309  22.157  1.00  0.00    -0.000 C 
BRANCH  11  12
ATOM     12  C   UNL     1      29.178 -10.036  20.974  1.00  0.00    -0.000 C 
BRANCH  12  13
ATOM     13  C   UNL     1      27.860 -10.729  21.362  1.00  0.00    -0.000 C 
BRANCH  13  14
ATOM     14  C   UNL     1      26.793 -10.626  20.260  1.00  0.00    -0.000 C 
BRANCH  14  15
ATOM     15  C   UNL     1      26.470 -11.984  19.620  1.00  0.00    -0.003 C 
ATOM     16  C   UNL     1      27.675 -12.918  19.676  1.00  0.00     0.004 C 
ENDBRANCH  14  15
ENDBRANCH  13  14
ENDBRANCH  12  13
ENDBRANCH  11  12
ENDBRANCH  10  11
ENDBRANCH   1  10
TORSDOF 12
ENDMDL
MODEL 7
REMARK VINA RESULT:    -5.931      4.766      8.806
REMARK INTER + INTRA:         -10.689
REMARK INTER:                 -10.196
REMARK INTRA:                  -0.493
REMARK UNBOUND:                -0.597
REMARK SMILES CCCCCCCCCCCCCC(=O)[O-]
REMARK SMILES IDX 8 1 9 2 10 3 11 4 12 5 13 6 14 7 15 8 16 9 7 10 6 11 5 12
REMARK SMILES IDX 4 13 3 14 2 15 1 16
REMARK H PARENT
REMARK Flexibility Score: inf
ROOT
ATOM      1  C   UNL     1      31.803  -8.582  21.566  1.00  0.00     0.000 C 
ENDROOT
BRANCH   1   2
ATOM      2  C   UNL     1      30.593  -9.398  22.052  1.00  0.00     0.000 C 
BRANCH   2   3
ATOM      3  C   UNL     1      29.454  -9.433  21.019  1.00  0.00     0.000 C 
BRANCH   3   4
ATOM      4  C   UNL     1      28.221 -10.212  21.513  1.00  0.00     0.000 C 
BRANCH   4   5
ATOM      5  C   UNL     1      27.947 -11.536  20.777  1.00  0.00     0.006 C 
BRANCH   5   6
ATOM      6  C   UNL     1      26.666 -11.498  19.934  1.00  0.00     0.053 C 
BRANCH   6   7
ATOM      7  C   UNL     1      26.651 -12.631  18.957  1.00  0.00     0.041 C 
ATOM      8  O   UNL     1      26.295 -12.435  17.765  1.00  0.00    -0.550 OA
ATOM      9  O   UNL     1      27.079 -13.893  19.348  1.00  0.00    -0.550 OA
ENDBRANCH   6   7
ENDBRANCH   5   6
ENDBRANCH   4   5
ENDBRANCH   3   4
ENDBRANCH   2   3
ENDBRANCH   1   2
BRANCH   1  10
ATOM     10  C   UNL     1      32.347  -9.086  20.218  1.00  0.00     0.000 C 
BRANCH  10  11
ATOM     11  C   UNL     1      33.868  -9.332  20.240  1.00  0.00    -0.000 C 
BRANCH  11  12
ATOM     12  C   UNL     1      34.620  -8.688  21.420  1.00  0.00    -0.000 C 
BRANCH  12  13
ATOM     13  C   UNL     1      36.100  -9.106  21.487  1.00  0.00    -0.000 C 
BRANCH  13  14
ATOM     14  C   UNL     1      36.285 -10.631  21.434  1.00  0.00    -0.000 C 
BRANCH  14  15
ATOM     15  C   UNL     1      37.558 -11.048  20.683  1.00  0.00    -0.003 C 
ATOM     16  C   UNL     1      38.462 -11.902  21.567  1.00  0.00     0.004 C 
ENDBRANCH  14  15
ENDBRANCH  13  14
ENDBRANCH  12  13
ENDBRANCH  11  12
ENDBRANCH  10  11
ENDBRANCH   1  10
TORSDOF 12
ENDMDL
MODEL 8
REMARK VINA RESULT:    -5.788      4.426      8.235
REMARK INTER + INTRA:         -10.446
REMARK INTER:                  -9.741
REMARK INTRA:                  -0.705
REMARK UNBOUND:                -0.597
REMARK SMILES CCCCCCCCCCCCCC(=O)[O-]
REMARK SMILES IDX 8 1 9 2 10 3 11 4 12 5 13 6 14 7 15 8 16 9 7 10 6 11 5 12
REMARK SMILES IDX 4 13 3 14 2 15 1 16
REMARK H PARENT
REMARK Flexibility Score: inf
ROOT
ATOM      1  C   UNL     1      28.967  -9.013  21.913  1.00  0.00     0.000 C 
ENDROOT
BRANCH   1   2
ATOM      2  C   UNL     1      28.355 -10.386  22.235  1.00  0.00     0.000 C 
BRANCH   2   3
ATOM      3  C   UNL     1      27.941 -11.157  20.969  1.00  0.00     0.000 C 
BRANCH   3   4
ATOM      4  C   UNL     1      26.521 -10.803  20.491  1.00  0.00     0.000 C 
BRANCH   4   5
ATOM      5  C   UNL     1      26.456  -9.815  19.312  1.00  0.00     0.006 C 
BRANCH   5   6
ATOM      6  C   UNL     1      25.731  -8.510  19.665  1.00  0.00     0.053 C 
BRANCH   6   7
ATOM      7  C   UNL     1      26.406  -7.344  19.013  1.00  0.00     0.041 C 
ATOM      8  O   UNL     1      25.757  -6.295  18.763  1.00  0.00    -0.550 OA
ATOM      9  O   UNL     1      27.764  -7.398  18.728  1.00  0.00    -0.550 OA
ENDBRANCH   6   7
ENDBRANCH   5   6
ENDBRANCH   4   5
ENDBRANCH   3   4
ENDBRANCH   2   3
ENDBRANCH   1   2
BRANCH   1  10
ATOM     10  C   UNL     1      30.248  -9.125  21.069  1.00  0.00     0.000 C 
BRANCH  10  11
ATOM     11  C   UNL     1      31.385  -8.221  21.582  1.00  0.00    -0.000 C 
BRANCH  11  12
ATOM     12  C   UNL     1      32.714  -8.942  21.878  1.00  0.00    -0.000 C 
BRANCH  12  13
ATOM     13  C   UNL     1      33.912  -8.317  21.141  1.00  0.00    -0.000 C 
BRANCH  13  14
ATOM     14  C   UNL     1      35.243  -8.998  21.497  1.00  0.00    -0.000 C 
BRANCH  14  15
ATOM     15  C   UNL     1      35.595 -10.147  20.541  1.00  0.00    -0.003 C 
ATOM     16  C   UNL     1      36.939 -10.771  20.904  1.00  0.00     0.004 C 
ENDBRANCH  14  15
ENDBRANCH  13  14
ENDBRANCH  12  13
ENDBRANCH  11  12
ENDBRANCH  10  11
ENDBRANCH   1  10
TORSDOF 12
ENDMDL
MODEL 9
REMARK VINA RESULT:    -5.706      4.208      8.205
REMARK INTER + INTRA:         -10.306
REMARK INTER:                  -9.636
REMARK INTRA:                  -0.670
REMARK UNBOUND:                -0.597
REMARK SMILES CCCCCCCCCCCCCC(=O)[O-]
REMARK SMILES IDX 8 1 9 2 10 3 11 4 12 5 13 6 14 7 15 8 16 9 7 10 6 11 5 12
REMARK SMILES IDX 4 13 3 14 2 15 1 16
REMARK H PARENT
REMARK Flexibility Score: inf
ROOT
ATOM      1  C   UNL     1      29.215  -8.111  22.276  1.00  0.00     0.000 C 
ENDROOT
BRANCH   1   2
ATOM      2  C   UNL     1      27.769  -8.226  21.766  1.00  0.00     0.000 C 
BRANCH   2   3
ATOM      3  C   UNL     1      27.696  -8.383  20.238  1.00  0.00     0.000 C 
BRANCH   3   4
ATOM      4  C   UNL     1      26.631  -9.402  19.790  1.00  0.00     0.000 C 
BRANCH   4   5
ATOM      5  C   UNL     1      26.800 -10.819  20.370  1.00  0.00     0.006 C 
BRANCH   5   6
ATOM      6  C   UNL     1      26.350 -11.919  19.400  1.00  0.00     0.053 C 
BRANCH   6   7
ATOM      7  C   UNL     1      27.427 -12.946  19.241  1.00  0.00     0.041 C 
ATOM      8  O   UNL     1      28.251 -13.149  20.171  1.00  0.00    -0.550 OA
ATOM      9  O   UNL     1      27.490 -13.714  18.086  1.00  0.00    -0.550 OA
ENDBRANCH   6   7
ENDBRANCH   5   6
ENDBRANCH   4   5
ENDBRANCH   3   4
ENDBRANCH   2   3
ENDBRANCH   1   2
BRANCH   1  10
ATOM     10  C   UNL     1      30.079  -9.318  21.870  1.00  0.00     0.000 C 
BRANCH  10  11
ATOM     11  C   UNL     1      31.292  -8.923  21.007  1.00  0.00    -0.000 C 
BRANCH  11  12
ATOM     12  C   UNL     1      32.638  -8.868  21.753  1.00  0.00    -0.000 C 
BRANCH  12  13
ATOM     13  C   UNL     1      33.820  -8.515  20.833  1.00  0.00    -0.000 C 
BRANCH  13  14
ATOM     14  C   UNL     1      34.496  -9.762  20.238  1.00  0.00    -0.000 C 
BRANCH  14  15
ATOM     15  C   UNL     1      35.801 -10.128  20.959  1.00  0.00    -0.003 C 
ATOM     16  C   UNL     1      36.304  -8.965  21.809  1.00  0.00     0.004 C 
ENDBRANCH  14  15
ENDBRANCH  13  14
ENDBRANCH  12  13
ENDBRANCH  11  12
ENDBRANCH  10  11
ENDBRANCH   1  10
TORSDOF 12
ENDMDL
