MODEL 1
REMARK VINA RESULT:    -2.960      0.000      0.000
REMARK INTER + INTRA:         -12.841
REMARK INTER:                  -7.459
REMARK INTRA:                  -5.382
REMARK UNBOUND:                -5.382
REMARK SMILES CCCCCCCCCCCCCCCCCCCCCCCCCCCC(=O)[O-]
REMARK SMILES IDX 15 1 16 2 17 3 18 4 19 5 20 6 21 7 22 8 23 9 24 10 25 11
REMARK SMILES IDX 26 12 27 13 28 14 29 15 30 16 14 17 13 18 12 19 11 20 10 21
REMARK SMILES IDX 9 22 8 23 7 24 6 25 5 26 4 27 3 28 2 29 1 30
REMARK H PARENT
REMARK Flexibility Score: inf
ROOT
ATOM      1  C   UNL     1      19.295   3.016  35.484  1.00  0.00     0.000 C 
ENDROOT
BRANCH   1   2
ATOM      2  C   UNL     1      20.239   1.796  35.467  1.00  0.00     0.000 C 
BRANCH   2   3
ATOM      3  C   UNL     1      21.715   2.105  35.783  1.00  0.00     0.000 C 
BRANCH   3   4
ATOM      4  C   UNL     1      22.670   2.052  34.572  1.00  0.00     0.000 C 
BRANCH   4   5
ATOM      5  C   UNL     1      23.481   3.337  34.323  1.00  0.00     0.000 C 
BRANCH   5   6
ATOM      6  C   UNL     1      23.095   4.037  33.008  1.00  0.00     0.000 C 
BRANCH   6   7
ATOM      7  C   UNL     1      22.345   3.107  32.040  1.00  0.00     0.000 C 
BRANCH   7   8
ATOM      8  C   UNL     1      21.589   3.877  30.943  1.00  0.00     0.000 C 
BRANCH   8   9
ATOM      9  C   UNL     1      20.063   3.696  31.033  1.00  0.00     0.000 C 
BRANCH   9  10
ATOM     10  C   UNL     1      19.598   2.424  31.770  1.00  0.00     0.000 C 
BRANCH  10  11
ATOM     11  C   UNL     1      18.079   2.331  32.026  1.00  0.00     0.000 C 
BRANCH  11  12
ATOM     12  C   UNL     1      17.305   3.653  31.841  1.00  0.00     0.006 C 
BRANCH  12  13
ATOM     13  C   UNL     1      16.210   3.898  32.890  1.00  0.00     0.053 C 
BRANCH  13  14
ATOM     14  C   UNL     1      14.845   3.944  32.272  1.00  0.00     0.041 C 
ATOM     15  O   UNL     1      13.857   4.333  32.947  1.00  0.00    -0.550 OA
ATOM     16  O   UNL     1      14.674   3.590  30.940  1.00  0.00    -0.550 OA
ENDBRANCH  13  14
ENDBRANCH  12  13
ENDBRANCH  11  12
ENDBRANCH  10  11
ENDBRANCH   9  10
ENDBRANCH   8   9
ENDBRANCH   7   8
ENDBRANCH   6   7
ENDBRANCH   5   6
ENDBRANCH   4   5
ENDBRANCH   3   4
ENDBRANCH   2   3
ENDBRANCH   1   2
BRANCH   1  17
ATOM     17  C   UNL     1      19.997   4.380  35.358  1.00  0.00     0.000 C 
BRANCH  17  18
ATOM     18  C   UNL     1      19.370   5.279  34.282  1.00  0.00     0.000 C 
BRANCH  18  19
ATOM     19  C   UNL     1      20.331   6.406  33.884  1.00  0.00     0.000 C 
BRANCH  19  20
ATOM     20  C   UNL     1      21.357   6.676  34.996  1.00  0.00     0.000 C 
BRANCH  20  21
ATOM     21  C   UNL     1      21.589   8.178  35.229  1.00  0.00     0.000 C 
BRANCH  21  22
ATOM     22  C   UNL     1      20.402   8.857  35.935  1.00  0.00    -0.000 C 
BRANCH  22  23
ATOM     23  C   UNL     1      20.850   9.826  37.050  1.00  0.00    -0.000 C 
BRANCH  23  24
ATOM     24  C   UNL     1      22.340   9.704  37.424  1.00  0.00    -0.000 C 
BRANCH  24  25
ATOM     25  C   UNL     1      22.617   9.336  38.893  1.00  0.00    -0.000 C 
BRANCH  25  26
ATOM     26  C   UNL     1      21.773   8.171  39.450  1.00  0.00    -0.000 C 
BRANCH  26  27
ATOM     27  C   UNL     1      21.961   6.827  38.725  1.00  0.00    -0.000 C 
BRANCH  27  28
ATOM     28  C   UNL     1      20.650   6.045  38.563  1.00  0.00    -0.000 C 
BRANCH  28  29
ATOM     29  C   UNL     1      20.822   4.588  39.008  1.00  0.00    -0.003 C 
ATOM     30  C   UNL     1      22.273   4.138  38.875  1.00  0.00     0.004 C 
ENDBRANCH  28  29
ENDBRANCH  27  28
ENDBRANCH  26  27
ENDBRANCH  25  26
ENDBRANCH  24  25
ENDBRANCH  23  24
ENDBRANCH  22  23
ENDBRANCH  21  22
ENDBRANCH  20  21
ENDBRANCH  19  20
ENDBRANCH  18  19
ENDBRANCH  17  18
ENDBRANCH   1  17
TORSDOF 26
ENDMDL
MODEL 2
REMARK VINA RESULT:    -2.933      5.267     11.341
REMARK INTER + INTRA:         -12.772
REMARK INTER:                  -6.980
REMARK INTRA:                  -5.792
REMARK UNBOUND:                -5.382
REMARK SMILES CCCCCCCCCCCCCCCCCCCCCCCCCCCC(=O)[O-]
REMARK SMILES IDX 15 1 16 2 17 3 18 4 19 5 20 6 21 7 22 8 23 9 24 10 25 11
REMARK SMILES IDX 26 12 27 13 28 14 29 15 30 16 14 17 13 18 12 19 11 20 10 21
REMARK SMILES IDX 9 22 8 23 7 24 6 25 5 26 4 27 3 28 2 29 1 30
REMARK H PARENT
REMARK Flexibility Score: inf
ROOT
ATOM      1  C   UNL     1      11.210   7.181  33.195  1.00  0.00     0.000 C 
ENDROOT
BRANCH   1   2
ATOM      2  C   UNL     1      10.406   7.905  32.096  1.00  0.00     0.000 C 
BRANCH   2   3
ATOM      3  C   UNL     1       9.234   7.097  31.503  1.00  0.00     0.000 C 
BRANCH   3   4
ATOM      4  C   UNL     1       9.346   6.793  29.995  1.00  0.00     0.000 C 
BRANCH   4   5
ATOM      5  C   UNL     1       9.535   5.307  29.641  1.00  0.00     0.000 C 
BRANCH   5   6
ATOM      6  C   UNL     1      10.885   5.026  28.957  1.00  0.00     0.000 C 
BRANCH   6   7
ATOM      7  C   UNL     1      12.085   5.452  29.820  1.00  0.00     0.000 C 
BRANCH   7   8
ATOM      8  C   UNL     1      12.432   4.419  30.906  1.00  0.00     0.000 C 
BRANCH   8   9
ATOM      9  C   UNL     1      13.604   4.864  31.799  1.00  0.00     0.000 C 
BRANCH   9  10
ATOM     10  C   UNL     1      14.227   3.748  32.664  1.00  0.00     0.000 C 
BRANCH  10  11
ATOM     11  C   UNL     1      15.639   3.298  32.237  1.00  0.00     0.000 C 
BRANCH  11  12
ATOM     12  C   UNL     1      16.715   3.392  33.338  1.00  0.00     0.006 C 
BRANCH  12  13
ATOM     13  C   UNL     1      18.056   3.973  32.866  1.00  0.00     0.053 C 
BRANCH  13  14
ATOM     14  C   UNL     1      18.262   3.779  31.394  1.00  0.00     0.041 C 
ATOM     15  O   UNL     1      18.110   4.743  30.600  1.00  0.00    -0.550 OA
ATOM     16  O   UNL     1      18.656   2.540  30.905  1.00  0.00    -0.550 OA
ENDBRANCH  13  14
ENDBRANCH  12  13
ENDBRANCH  11  12
ENDBRANCH  10  11
ENDBRANCH   9  10
ENDBRANCH   8   9
ENDBRANCH   7   8
ENDBRANCH   6   7
ENDBRANCH   5   6
ENDBRANCH   4   5
ENDBRANCH   3   4
ENDBRANCH   2   3
ENDBRANCH   1   2
BRANCH   1  17
ATOM     17  C   UNL     1      10.386   6.228  34.080  1.00  0.00     0.000 C 
BRANCH  17  18
ATOM     18  C   UNL     1      11.174   4.983  34.516  1.00  0.00     0.000 C 
BRANCH  18  19
ATOM     19  C   UNL     1      10.322   3.717  34.363  1.00  0.00     0.000 C 
BRANCH  19  20
ATOM     20  C   UNL     1       9.178   3.939  33.360  1.00  0.00     0.000 C 
BRANCH  20  21
ATOM     21  C   UNL     1       9.177   2.896  32.230  1.00  0.00     0.000 C 
BRANCH  21  22
ATOM     22  C   UNL     1       9.981   1.634  32.591  1.00  0.00    -0.000 C 
BRANCH  22  23
ATOM     23  C   UNL     1      10.952   1.208  31.468  1.00  0.00    -0.000 C 
BRANCH  23  24
ATOM     24  C   UNL     1      10.433   1.502  30.047  1.00  0.00    -0.000 C 
BRANCH  24  25
ATOM     25  C   UNL     1      11.501   1.455  28.939  1.00  0.00    -0.000 C 
BRANCH  25  26
ATOM     26  C   UNL     1      12.926   1.103  29.414  1.00  0.00    -0.000 C 
BRANCH  26  27
ATOM     27  C   UNL     1      14.061   1.748  28.598  1.00  0.00    -0.000 C 
BRANCH  27  28
ATOM     28  C   UNL     1      13.549   2.719  27.524  1.00  0.00    -0.000 C 
BRANCH  28  29
ATOM     29  C   UNL     1      14.497   3.915  27.371  1.00  0.00    -0.003 C 
ATOM     30  C   UNL     1      15.413   4.052  28.582  1.00  0.00     0.004 C 
ENDBRANCH  28  29
ENDBRANCH  27  28
ENDBRANCH  26  27
ENDBRANCH  25  26
ENDBRANCH  24  25
ENDBRANCH  23  24
ENDBRANCH  22  23
ENDBRANCH  21  22
ENDBRANCH  20  21
ENDBRANCH  19  20
ENDBRANCH  18  19
ENDBRANCH  17  18
ENDBRANCH   1  17
TORSDOF 26
ENDMDL
MODEL 3
REMARK VINA RESULT:    -2.903      4.252      5.645
REMARK INTER + INTRA:         -12.698
REMARK INTER:                  -9.912
REMARK INTRA:                  -2.786
REMARK UNBOUND:                -5.382
REMARK SMILES CCCCCCCCCCCCCCCCCCCCCCCCCCCC(=O)[O-]
REMARK SMILES IDX 15 1 16 2 17 3 18 4 19 5 20 6 21 7 22 8 23 9 24 10 25 11
REMARK SMILES IDX 26 12 27 13 28 14 29 15 30 16 14 17 13 18 12 19 11 20 10 21
REMARK SMILES IDX 9 22 8 23 7 24 6 25 5 26 4 27 3 28 2 29 1 30
REMARK H PARENT
REMARK Flexibility Score: inf
ROOT
ATOM      1  C   UNL     1      22.015   3.735  34.734  1.00  0.00     0.000 C 
ENDROOT
BRANCH   1   2
ATOM      2  C   UNL     1      21.848   3.840  33.204  1.00  0.00     0.000 C 
BRANCH   2   3
ATOM      3  C   UNL     1      22.730   2.880  32.382  1.00  0.00     0.000 C 
BRANCH   3   4
ATOM      4  C   UNL     1      22.354   2.760  30.890  1.00  0.00     0.000 C 
BRANCH   4   5
ATOM      5  C   UNL     1      22.965   1.552  30.157  1.00  0.00     0.000 C 
BRANCH   5   6
ATOM      6  C   UNL     1      22.863   1.671  28.627  1.00  0.00     0.000 C 
BRANCH   6   7
ATOM      7  C   UNL     1      22.611   3.116  28.161  1.00  0.00     0.000 C 
BRANCH   7   8
ATOM      8  C   UNL     1      22.297   3.208  26.658  1.00  0.00     0.000 C 
BRANCH   8   9
ATOM      9  C   UNL     1      23.142   4.275  25.938  1.00  0.00     0.000 C 
BRANCH   9  10
ATOM     10  C   UNL     1      24.433   4.691  26.673  1.00  0.00     0.000 C 
BRANCH  10  11
ATOM     11  C   UNL     1      24.716   6.207  26.694  1.00  0.00     0.000 C 
BRANCH  11  12
ATOM     12  C   UNL     1      23.566   7.078  27.241  1.00  0.00     0.006 C 
BRANCH  12  13
ATOM     13  C   UNL     1      23.834   7.684  28.626  1.00  0.00     0.053 C 
BRANCH  13  14
ATOM     14  C   UNL     1      24.378   9.077  28.530  1.00  0.00     0.041 C 
ATOM     15  O   UNL     1      23.983   9.852  27.620  1.00  0.00    -0.550 OA
ATOM     16  O   UNL     1      25.295   9.531  29.470  1.00  0.00    -0.550 OA
ENDBRANCH  13  14
ENDBRANCH  12  13
ENDBRANCH  11  12
ENDBRANCH  10  11
ENDBRANCH   9  10
ENDBRANCH   8   9
ENDBRANCH   7   8
ENDBRANCH   6   7
ENDBRANCH   5   6
ENDBRANCH   4   5
ENDBRANCH   3   4
ENDBRANCH   2   3
ENDBRANCH   1   2
BRANCH   1  17
ATOM     17  C   UNL     1      20.721   3.933  35.543  1.00  0.00     0.000 C 
BRANCH  17  18
ATOM     18  C   UNL     1      20.265   5.399  35.594  1.00  0.00     0.000 C 
BRANCH  18  19
ATOM     19  C   UNL     1      21.468   6.348  35.527  1.00  0.00     0.000 C 
BRANCH  19  20
ATOM     20  C   UNL     1      21.179   7.540  34.601  1.00  0.00     0.000 C 
BRANCH  20  21
ATOM     21  C   UNL     1      21.771   8.855  35.134  1.00  0.00     0.000 C 
BRANCH  21  22
ATOM     22  C   UNL     1      22.336   8.714  36.558  1.00  0.00    -0.000 C 
BRANCH  22  23
ATOM     23  C   UNL     1      21.744   9.751  37.537  1.00  0.00    -0.000 C 
BRANCH  23  24
ATOM     24  C   UNL     1      20.211   9.889  37.451  1.00  0.00    -0.000 C 
BRANCH  24  25
ATOM     25  C   UNL     1      19.417   8.902  38.326  1.00  0.00    -0.000 C 
BRANCH  25  26
ATOM     26  C   UNL     1      19.933   8.742  39.772  1.00  0.00    -0.000 C 
BRANCH  26  27
ATOM     27  C   UNL     1      20.173   7.289  40.219  1.00  0.00    -0.000 C 
BRANCH  27  28
ATOM     28  C   UNL     1      20.683   6.389  39.085  1.00  0.00    -0.000 C 
BRANCH  28  29
ATOM     29  C   UNL     1      22.195   6.163  39.202  1.00  0.00    -0.003 C 
ATOM     30  C   UNL     1      22.504   4.783  39.773  1.00  0.00     0.004 C 
ENDBRANCH  28  29
ENDBRANCH  27  28
ENDBRANCH  26  27
ENDBRANCH  25  26
ENDBRANCH  24  25
ENDBRANCH  23  24
ENDBRANCH  22  23
ENDBRANCH  21  22
ENDBRANCH  20  21
ENDBRANCH  19  20
ENDBRANCH  18  19
ENDBRANCH  17  18
ENDBRANCH   1  17
TORSDOF 26
ENDMDL
MODEL 4
REMARK VINA RESULT:    -2.898      7.217     10.945
REMARK INTER + INTRA:         -12.685
REMARK INTER:                  -7.259
REMARK INTRA:                  -5.426
REMARK UNBOUND:                -5.382
REMARK SMILES CCCCCCCCCCCCCCCCCCCCCCCCCCCC(=O)[O-]
REMARK SMILES IDX 15 1 16 2 17 3 18 4 19 5 20 6 21 7 22 8 23 9 24 10 25 11
REMARK SMILES IDX 26 12 27 13 28 14 29 15 30 16 14 17 13 18 12 19 11 20 10 21
REMARK SMILES IDX 9 22 8 23 7 24 6 25 5 26 4 27 3 28 2 29 1 30
REMARK H PARENT
REMARK Flexibility Score: inf
ROOT
ATOM      1  C   UNL     1      12.715   1.570  31.202  1.00  0.00     0.000 C 
ENDROOT
BRANCH   1   2
ATOM      2  C   UNL     1      11.422   0.921  31.738  1.00  0.00     0.000 C 
BRANCH   2   3
ATOM      3  C   UNL     1      10.309   1.912  32.134  1.00  0.00     0.000 C 
BRANCH   3   4
ATOM      4  C   UNL     1       9.051   1.875  31.241  1.00  0.00     0.000 C 
BRANCH   4   5
ATOM      5  C   UNL     1       9.119   2.756  29.981  1.00  0.00     0.000 C 
BRANCH   5   6
ATOM      6  C   UNL     1      10.070   3.955  30.144  1.00  0.00     0.000 C 
BRANCH   6   7
ATOM      7  C   UNL     1       9.628   5.178  29.323  1.00  0.00     0.000 C 
BRANCH   7   8
ATOM      8  C   UNL     1       9.899   6.508  30.047  1.00  0.00     0.000 C 
BRANCH   8   9
ATOM      9  C   UNL     1       9.355   6.523  31.488  1.00  0.00     0.000 C 
BRANCH   9  10
ATOM     10  C   UNL     1      10.355   7.003  32.560  1.00  0.00     0.000 C 
BRANCH  10  11
ATOM     11  C   UNL     1      11.780   6.425  32.433  1.00  0.00     0.000 C 
BRANCH  11  12
ATOM     12  C   UNL     1      11.988   5.051  33.102  1.00  0.00     0.006 C 
BRANCH  12  13
ATOM     13  C   UNL     1      13.367   4.866  33.753  1.00  0.00     0.053 C 
BRANCH  13  14
ATOM     14  C   UNL     1      13.337   3.839  34.844  1.00  0.00     0.041 C 
ATOM     15  O   UNL     1      13.370   4.194  36.051  1.00  0.00    -0.550 OA
ATOM     16  O   UNL     1      13.234   2.491  34.526  1.00  0.00    -0.550 OA
ENDBRANCH  13  14
ENDBRANCH  12  13
ENDBRANCH  11  12
ENDBRANCH  10  11
ENDBRANCH   9  10
ENDBRANCH   8   9
ENDBRANCH   7   8
ENDBRANCH   6   7
ENDBRANCH   5   6
ENDBRANCH   4   5
ENDBRANCH   3   4
ENDBRANCH   2   3
ENDBRANCH   1   2
BRANCH   1  17
ATOM     17  C   UNL     1      13.099   1.161  29.768  1.00  0.00     0.000 C 
BRANCH  17  18
ATOM     18  C   UNL     1      11.886   1.052  28.831  1.00  0.00     0.000 C 
BRANCH  18  19
ATOM     19  C   UNL     1      12.326   0.679  27.410  1.00  0.00     0.000 C 
BRANCH  19  20
ATOM     20  C   UNL     1      13.651   1.366  27.044  1.00  0.00     0.000 C 
BRANCH  20  21
ATOM     21  C   UNL     1      13.528   2.255  25.796  1.00  0.00     0.000 C 
BRANCH  21  22
ATOM     22  C   UNL     1      13.730   3.748  26.113  1.00  0.00    -0.000 C 
BRANCH  22  23
ATOM     23  C   UNL     1      12.894   4.216  27.324  1.00  0.00    -0.000 C 
BRANCH  23  24
ATOM     24  C   UNL     1      13.626   5.215  28.241  1.00  0.00    -0.000 C 
BRANCH  24  25
ATOM     25  C   UNL     1      13.613   4.857  29.739  1.00  0.00    -0.000 C 
BRANCH  25  26
ATOM     26  C   UNL     1      15.001   4.628  30.372  1.00  0.00    -0.000 C 
BRANCH  26  27
ATOM     27  C   UNL     1      16.183   5.210  29.576  1.00  0.00    -0.000 C 
BRANCH  27  28
ATOM     28  C   UNL     1      17.041   4.129  28.903  1.00  0.00    -0.000 C 
BRANCH  28  29
ATOM     29  C   UNL     1      16.869   2.777  29.605  1.00  0.00    -0.003 C 
ATOM     30  C   UNL     1      16.736   1.643  28.593  1.00  0.00     0.004 C 
ENDBRANCH  28  29
ENDBRANCH  27  28
ENDBRANCH  26  27
ENDBRANCH  25  26
ENDBRANCH  24  25
ENDBRANCH  23  24
ENDBRANCH  22  23
ENDBRANCH  21  22
ENDBRANCH  20  21
ENDBRANCH  19  20
ENDBRANCH  18  19
ENDBRANCH  17  18
ENDBRANCH   1  17
TORSDOF 26
ENDMDL
MODEL 5
REMARK VINA RESULT:    -2.875      5.657      8.903
REMARK INTER + INTRA:         -12.626
REMARK INTER:                  -8.009
REMARK INTRA:                  -4.617
REMARK UNBOUND:                -5.382
REMARK SMILES CCCCCCCCCCCCCCCCCCCCCCCCCCCC(=O)[O-]
REMARK SMILES IDX 15 1 16 2 17 3 18 4 19 5 20 6 21 7 22 8 23 9 24 10 25 11
REMARK SMILES IDX 26 12 27 13 28 14 29 15 30 16 14 17 13 18 12 19 11 20 10 21
REMARK SMILES IDX 9 22 8 23 7 24 6 25 5 26 4 27 3 28 2 29 1 30
REMARK H PARENT
REMARK Flexibility Score: inf
ROOT
ATOM      1  C   UNL     1      19.500   2.881  26.767  1.00  0.00     0.000 C 
ENDROOT
BRANCH   1   2
ATOM      2  C   UNL     1      19.818   4.381  26.606  1.00  0.00     0.000 C 
BRANCH   2   3
ATOM      3  C   UNL     1      19.934   4.874  25.150  1.00  0.00     0.000 C 
BRANCH   3   4
ATOM      4  C   UNL     1      19.881   3.765  24.078  1.00  0.00     0.000 C 
BRANCH   4   5
ATOM      5  C   UNL     1      21.251   3.222  23.632  1.00  0.00     0.000 C 
BRANCH   5   6
ATOM      6  C   UNL     1      22.209   4.334  23.169  1.00  0.00     0.000 C 
BRANCH   6   7
ATOM      7  C   UNL     1      23.513   4.368  23.982  1.00  0.00     0.000 C 
BRANCH   7   8
ATOM      8  C   UNL     1      23.434   3.522  25.265  1.00  0.00     0.000 C 
BRANCH   8   9
ATOM      9  C   UNL     1      24.202   4.152  26.442  1.00  0.00     0.000 C 
BRANCH   9  10
ATOM     10  C   UNL     1      23.360   5.065  27.357  1.00  0.00     0.000 C 
BRANCH  10  11
ATOM     11  C   UNL     1      23.005   6.443  26.762  1.00  0.00     0.000 C 
BRANCH  11  12
ATOM     12  C   UNL     1      24.014   7.568  27.073  1.00  0.00     0.006 C 
BRANCH  12  13
ATOM     13  C   UNL     1      25.306   7.505  26.245  1.00  0.00     0.053 C 
BRANCH  13  14
ATOM     14  C   UNL     1      26.528   7.516  27.114  1.00  0.00     0.041 C 
ATOM     15  O   UNL     1      26.416   7.455  28.366  1.00  0.00    -0.550 OA
ATOM     16  O   UNL     1      27.790   7.557  26.536  1.00  0.00    -0.550 OA
ENDBRANCH  13  14
ENDBRANCH  12  13
ENDBRANCH  11  12
ENDBRANCH  10  11
ENDBRANCH   9  10
ENDBRANCH   8   9
ENDBRANCH   7   8
ENDBRANCH   6   7
ENDBRANCH   5   6
ENDBRANCH   4   5
ENDBRANCH   3   4
ENDBRANCH   2   3
ENDBRANCH   1   2
BRANCH   1  17
ATOM     17  C   UNL     1      20.691   2.009  27.207  1.00  0.00     0.000 C 
BRANCH  17  18
ATOM     18  C   UNL     1      21.199   2.356  28.614  1.00  0.00     0.000 C 
BRANCH  18  19
ATOM     19  C   UNL     1      22.609   1.796  28.840  1.00  0.00     0.000 C 
BRANCH  19  20
ATOM     20  C   UNL     1      22.885   1.582  30.337  1.00  0.00     0.000 C 
BRANCH  20  21
ATOM     21  C   UNL     1      21.861   2.300  31.231  1.00  0.00     0.000 C 
BRANCH  21  22
ATOM     22  C   UNL     1      22.454   3.533  31.935  1.00  0.00    -0.000 C 
BRANCH  22  23
ATOM     23  C   UNL     1      22.071   4.856  31.236  1.00  0.00    -0.000 C 
BRANCH  23  24
ATOM     24  C   UNL     1      22.176   6.097  32.144  1.00  0.00    -0.000 C 
BRANCH  24  25
ATOM     25  C   UNL     1      21.627   5.912  33.570  1.00  0.00    -0.000 C 
BRANCH  25  26
ATOM     26  C   UNL     1      20.088   5.867  33.681  1.00  0.00    -0.000 C 
BRANCH  26  27
ATOM     27  C   UNL     1      19.497   4.475  33.967  1.00  0.00    -0.000 C 
BRANCH  27  28
ATOM     28  C   UNL     1      18.150   4.242  33.269  1.00  0.00    -0.000 C 
BRANCH  28  29
ATOM     29  C   UNL     1      18.328   3.397  32.002  1.00  0.00    -0.003 C 
ATOM     30  C   UNL     1      18.547   4.278  30.777  1.00  0.00     0.004 C 
ENDBRANCH  28  29
ENDBRANCH  27  28
ENDBRANCH  26  27
ENDBRANCH  25  26
ENDBRANCH  24  25
ENDBRANCH  23  24
ENDBRANCH  22  23
ENDBRANCH  21  22
ENDBRANCH  20  21
ENDBRANCH  19  20
ENDBRANCH  18  19
ENDBRANCH  17  18
ENDBRANCH   1  17
TORSDOF 26
ENDMDL
MODEL 6
REMARK VINA RESULT:    -2.874      3.215      6.672
REMARK INTER + INTRA:         -12.623
REMARK INTER:                  -8.368
REMARK INTRA:                  -4.255
REMARK UNBOUND:                -5.382
REMARK SMILES CCCCCCCCCCCCCCCCCCCCCCCCCCCC(=O)[O-]
REMARK SMILES IDX 15 1 16 2 17 3 18 4 19 5 20 6 21 7 22 8 23 9 24 10 25 11
REMARK SMILES IDX 26 12 27 13 28 14 29 15 30 16 14 17 13 18 12 19 11 20 10 21
REMARK SMILES IDX 9 22 8 23 7 24 6 25 5 26 4 27 3 28 2 29 1 30
REMARK H PARENT
REMARK Flexibility Score: inf
ROOT
ATOM      1  C   UNL     1      20.656   9.223  39.163  1.00  0.00     0.000 C 
ENDROOT
BRANCH   1   2
ATOM      2  C   UNL     1      19.816   9.299  37.871  1.00  0.00     0.000 C 
BRANCH   2   3
ATOM      3  C   UNL     1      20.564   9.836  36.635  1.00  0.00     0.000 C 
BRANCH   3   4
ATOM      4  C   UNL     1      20.608   8.875  35.428  1.00  0.00     0.000 C 
BRANCH   4   5
ATOM      5  C   UNL     1      19.385   7.950  35.285  1.00  0.00     0.000 C 
BRANCH   5   6
ATOM      6  C   UNL     1      19.766   6.524  34.849  1.00  0.00     0.000 C 
BRANCH   6   7
ATOM      7  C   UNL     1      21.104   6.060  35.448  1.00  0.00     0.000 C 
BRANCH   7   8
ATOM      8  C   UNL     1      21.001   4.689  36.138  1.00  0.00     0.000 C 
BRANCH   8   9
ATOM      9  C   UNL     1      22.377   4.058  36.418  1.00  0.00     0.000 C 
BRANCH   9  10
ATOM     10  C   UNL     1      22.932   3.170  35.284  1.00  0.00     0.000 C 
BRANCH  10  11
ATOM     11  C   UNL     1      21.866   2.460  34.425  1.00  0.00     0.000 C 
BRANCH  11  12
ATOM     12  C   UNL     1      21.937   2.763  32.915  1.00  0.00     0.006 C 
BRANCH  12  13
ATOM     13  C   UNL     1      22.812   3.973  32.552  1.00  0.00     0.053 C 
BRANCH  13  14
ATOM     14  C   UNL     1      21.988   5.151  32.129  1.00  0.00     0.041 C 
ATOM     15  O   UNL     1      20.786   4.995  31.789  1.00  0.00    -0.550 OA
ATOM     16  O   UNL     1      22.539   6.426  32.145  1.00  0.00    -0.550 OA
ENDBRANCH  13  14
ENDBRANCH  12  13
ENDBRANCH  11  12
ENDBRANCH  10  11
ENDBRANCH   9  10
ENDBRANCH   8   9
ENDBRANCH   7   8
ENDBRANCH   6   7
ENDBRANCH   5   6
ENDBRANCH   4   5
ENDBRANCH   3   4
ENDBRANCH   2   3
ENDBRANCH   1   2
BRANCH   1  17
ATOM     17  C   UNL     1      22.029   8.544  39.004  1.00  0.00     0.000 C 
BRANCH  17  18
ATOM     18  C   UNL     1      21.929   7.018  38.854  1.00  0.00     0.000 C 
BRANCH  18  19
ATOM     19  C   UNL     1      20.884   6.442  39.817  1.00  0.00     0.000 C 
BRANCH  19  20
ATOM     20  C   UNL     1      20.834   4.909  39.725  1.00  0.00     0.000 C 
BRANCH  20  21
ATOM     21  C   UNL     1      20.985   4.233  41.098  1.00  0.00     0.000 C 
BRANCH  21  22
ATOM     22  C   UNL     1      22.397   3.666  41.326  1.00  0.00    -0.000 C 
BRANCH  22  23
ATOM     23  C   UNL     1      23.255   3.679  40.041  1.00  0.00    -0.000 C 
BRANCH  23  24
ATOM     24  C   UNL     1      23.630   2.277  39.524  1.00  0.00    -0.000 C 
BRANCH  24  25
ATOM     25  C   UNL     1      23.464   1.138  40.546  1.00  0.00    -0.000 C 
BRANCH  25  26
ATOM     26  C   UNL     1      24.774   0.447  40.980  1.00  0.00    -0.000 C 
BRANCH  26  27
ATOM     27  C   UNL     1      25.948   1.401  41.266  1.00  0.00    -0.000 C 
BRANCH  27  28
ATOM     28  C   UNL     1      25.980   1.892  42.720  1.00  0.00    -0.000 C 
BRANCH  28  29
ATOM     29  C   UNL     1      26.192   3.409  42.781  1.00  0.00    -0.003 C 
ATOM     30  C   UNL     1      26.648   3.958  41.434  1.00  0.00     0.004 C 
ENDBRANCH  28  29
ENDBRANCH  27  28
ENDBRANCH  26  27
ENDBRANCH  25  26
ENDBRANCH  24  25
ENDBRANCH  23  24
ENDBRANCH  22  23
ENDBRANCH  21  22
ENDBRANCH  20  21
ENDBRANCH  19  20
ENDBRANCH  18  19
ENDBRANCH  17  18
ENDBRANCH   1  17
TORSDOF 26
ENDMDL
MODEL 7
REMARK VINA RESULT:    -2.851      6.238      9.985
REMARK INTER + INTRA:         -12.567
REMARK INTER:                  -6.983
REMARK INTRA:                  -5.585
REMARK UNBOUND:                -5.382
REMARK SMILES CCCCCCCCCCCCCCCCCCCCCCCCCCCC(=O)[O-]
REMARK SMILES IDX 15 1 16 2 17 3 18 4 19 5 20 6 21 7 22 8 23 9 24 10 25 11
REMARK SMILES IDX 26 12 27 13 28 14 29 15 30 16 14 17 13 18 12 19 11 20 10 21
REMARK SMILES IDX 9 22 8 23 7 24 6 25 5 26 4 27 3 28 2 29 1 30
REMARK H PARENT
REMARK Flexibility Score: inf
ROOT
ATOM      1  C   UNL     1       9.314   5.629  34.058  1.00  0.00     0.000 C 
ENDROOT
BRANCH   1   2
ATOM      2  C   UNL     1      10.399   6.665  34.416  1.00  0.00     0.000 C 
BRANCH   2   3
ATOM      3  C   UNL     1      10.813   7.603  33.265  1.00  0.00     0.000 C 
BRANCH   3   4
ATOM      4  C   UNL     1      10.040   7.401  31.946  1.00  0.00     0.000 C 
BRANCH   4   5
ATOM      5  C   UNL     1      10.706   6.447  30.938  1.00  0.00     0.000 C 
BRANCH   5   6
ATOM      6  C   UNL     1       9.685   5.622  30.135  1.00  0.00     0.000 C 
BRANCH   6   7
ATOM      7  C   UNL     1      10.351   4.552  29.253  1.00  0.00     0.000 C 
BRANCH   7   8
ATOM      8  C   UNL     1      11.758   4.961  28.785  1.00  0.00     0.000 C 
BRANCH   8   9
ATOM      9  C   UNL     1      12.538   3.793  28.152  1.00  0.00     0.000 C 
BRANCH   9  10
ATOM     10  C   UNL     1      14.071   3.872  28.306  1.00  0.00     0.000 C 
BRANCH  10  11
ATOM     11  C   UNL     1      14.621   5.259  28.699  1.00  0.00     0.000 C 
BRANCH  11  12
ATOM     12  C   UNL     1      15.976   5.238  29.434  1.00  0.00     0.006 C 
BRANCH  12  13
ATOM     13  C   UNL     1      16.490   3.831  29.776  1.00  0.00     0.053 C 
BRANCH  13  14
ATOM     14  C   UNL     1      17.527   3.863  30.857  1.00  0.00     0.041 C 
ATOM     15  O   UNL     1      18.744   3.716  30.574  1.00  0.00    -0.550 OA
ATOM     16  O   UNL     1      17.150   4.091  32.175  1.00  0.00    -0.550 OA
ENDBRANCH  13  14
ENDBRANCH  12  13
ENDBRANCH  11  12
ENDBRANCH  10  11
ENDBRANCH   9  10
ENDBRANCH   8   9
ENDBRANCH   7   8
ENDBRANCH   6   7
ENDBRANCH   5   6
ENDBRANCH   4   5
ENDBRANCH   3   4
ENDBRANCH   2   3
ENDBRANCH   1   2
BRANCH   1  17
ATOM     17  C   UNL     1       9.782   4.163  34.086  1.00  0.00     0.000 C 
BRANCH  17  18
ATOM     18  C   UNL     1       9.349   3.371  32.843  1.00  0.00     0.000 C 
BRANCH  18  19
ATOM     19  C   UNL     1      10.419   2.347  32.446  1.00  0.00     0.000 C 
BRANCH  19  20
ATOM     20  C   UNL     1      11.810   2.788  32.928  1.00  0.00     0.000 C 
BRANCH  20  21
ATOM     21  C   UNL     1      12.709   3.263  31.775  1.00  0.00     0.000 C 
BRANCH  21  22
ATOM     22  C   UNL     1      13.615   4.439  32.178  1.00  0.00    -0.000 C 
BRANCH  22  23
ATOM     23  C   UNL     1      13.411   4.869  33.647  1.00  0.00    -0.000 C 
BRANCH  23  24
ATOM     24  C   UNL     1      14.551   4.437  34.590  1.00  0.00    -0.000 C 
BRANCH  24  25
ATOM     25  C   UNL     1      14.097   3.754  35.893  1.00  0.00    -0.000 C 
BRANCH  25  26
ATOM     26  C   UNL     1      12.671   4.112  36.362  1.00  0.00    -0.000 C 
BRANCH  26  27
ATOM     27  C   UNL     1      11.994   3.053  37.251  1.00  0.00    -0.000 C 
BRANCH  27  28
ATOM     28  C   UNL     1      11.355   1.914  36.443  1.00  0.00    -0.000 C 
BRANCH  28  29
ATOM     29  C   UNL     1       9.924   1.640  36.921  1.00  0.00    -0.003 C 
ATOM     30  C   UNL     1       9.282   2.900  37.491  1.00  0.00     0.004 C 
ENDBRANCH  28  29
ENDBRANCH  27  28
ENDBRANCH  26  27
ENDBRANCH  25  26
ENDBRANCH  24  25
ENDBRANCH  23  24
ENDBRANCH  22  23
ENDBRANCH  21  22
ENDBRANCH  20  21
ENDBRANCH  19  20
ENDBRANCH  18  19
ENDBRANCH  17  18
ENDBRANCH   1  17
TORSDOF 26
ENDMDL
MODEL 8
REMARK VINA RESULT:    -2.847      7.432     10.328
REMARK INTER + INTRA:         -12.557
REMARK INTER:                  -7.072
REMARK INTRA:                  -5.485
REMARK UNBOUND:                -5.382
REMARK SMILES CCCCCCCCCCCCCCCCCCCCCCCCCCCC(=O)[O-]
REMARK SMILES IDX 15 1 16 2 17 3 18 4 19 5 20 6 21 7 22 8 23 9 24 10 25 11
REMARK SMILES IDX 26 12 27 13 28 14 29 15 30 16 14 17 13 18 12 19 11 20 10 21
REMARK SMILES IDX 9 22 8 23 7 24 6 25 5 26 4 27 3 28 2 29 1 30
REMARK H PARENT
REMARK Flexibility Score: inf
ROOT
ATOM      1  C   UNL     1      11.825   4.903  34.331  1.00  0.00     0.000 C 
ENDROOT
BRANCH   1   2
ATOM      2  C   UNL     1      10.541   5.709  34.044  1.00  0.00     0.000 C 
BRANCH   2   3
ATOM      3  C   UNL     1      10.770   7.167  33.600  1.00  0.00     0.000 C 
BRANCH   3   4
ATOM      4  C   UNL     1      10.365   7.478  32.143  1.00  0.00     0.000 C 
BRANCH   4   5
ATOM      5  C   UNL     1       9.433   6.443  31.489  1.00  0.00     0.000 C 
BRANCH   5   6
ATOM      6  C   UNL     1       9.867   6.071  30.060  1.00  0.00     0.000 C 
BRANCH   6   7
ATOM      7  C   UNL     1       9.707   4.570  29.764  1.00  0.00     0.000 C 
BRANCH   7   8
ATOM      8  C   UNL     1       9.633   3.719  31.043  1.00  0.00     0.000 C 
BRANCH   8   9
ATOM      9  C   UNL     1       9.519   2.211  30.749  1.00  0.00     0.000 C 
BRANCH   9  10
ATOM     10  C   UNL     1      10.757   1.375  31.134  1.00  0.00     0.000 C 
BRANCH  10  11
ATOM     11  C   UNL     1      11.925   1.430  30.128  1.00  0.00     0.000 C 
BRANCH  11  12
ATOM     12  C   UNL     1      11.505   1.555  28.649  1.00  0.00     0.006 C 
BRANCH  12  13
ATOM     13  C   UNL     1      12.321   0.682  27.683  1.00  0.00     0.053 C 
BRANCH  13  14
ATOM     14  C   UNL     1      12.366   1.268  26.304  1.00  0.00     0.041 C 
ATOM     15  O   UNL     1      11.658   0.781  25.384  1.00  0.00    -0.550 OA
ATOM     16  O   UNL     1      13.164   2.375  26.045  1.00  0.00    -0.550 OA
ENDBRANCH  13  14
ENDBRANCH  12  13
ENDBRANCH  11  12
ENDBRANCH  10  11
ENDBRANCH   9  10
ENDBRANCH   8   9
ENDBRANCH   7   8
ENDBRANCH   6   7
ENDBRANCH   5   6
ENDBRANCH   4   5
ENDBRANCH   3   4
ENDBRANCH   2   3
ENDBRANCH   1   2
BRANCH   1  17
ATOM     17  C   UNL     1      12.983   5.159  33.349  1.00  0.00     0.000 C 
BRANCH  17  18
ATOM     18  C   UNL     1      12.787   4.459  31.996  1.00  0.00     0.000 C 
BRANCH  18  19
ATOM     19  C   UNL     1      13.858   4.902  30.991  1.00  0.00     0.000 C 
BRANCH  19  20
ATOM     20  C   UNL     1      13.285   4.967  29.566  1.00  0.00     0.000 C 
BRANCH  20  21
ATOM     21  C   UNL     1      14.382   5.100  28.497  1.00  0.00     0.000 C 
BRANCH  21  22
ATOM     22  C   UNL     1      15.798   5.068  29.098  1.00  0.00    -0.000 C 
BRANCH  22  23
ATOM     23  C   UNL     1      16.706   4.016  28.423  1.00  0.00    -0.000 C 
BRANCH  23  24
ATOM     24  C   UNL     1      15.994   2.687  28.105  1.00  0.00    -0.000 C 
BRANCH  24  25
ATOM     25  C   UNL     1      15.496   1.902  29.333  1.00  0.00    -0.000 C 
BRANCH  25  26
ATOM     26  C   UNL     1      16.471   1.864  30.528  1.00  0.00    -0.000 C 
BRANCH  26  27
ATOM     27  C   UNL     1      15.811   2.017  31.911  1.00  0.00    -0.000 C 
BRANCH  27  28
ATOM     28  C   UNL     1      14.832   0.880  32.236  1.00  0.00    -0.000 C 
BRANCH  28  29
ATOM     29  C   UNL     1      14.556   0.810  33.743  1.00  0.00    -0.003 C 
ATOM     30  C   UNL     1      13.203   1.426  34.085  1.00  0.00     0.004 C 
ENDBRANCH  28  29
ENDBRANCH  27  28
ENDBRANCH  26  27
ENDBRANCH  25  26
ENDBRANCH  24  25
ENDBRANCH  23  24
ENDBRANCH  22  23
ENDBRANCH  21  22
ENDBRANCH  20  21
ENDBRANCH  19  20
ENDBRANCH  18  19
ENDBRANCH  17  18
ENDBRANCH   1  17
TORSDOF 26
ENDMDL
MODEL 9
REMARK VINA RESULT:    -2.842      6.928     11.325
REMARK INTER + INTRA:         -12.543
REMARK INTER:                  -6.636
REMARK INTRA:                  -5.907
REMARK UNBOUND:                -5.382
REMARK SMILES CCCCCCCCCCCCCCCCCCCCCCCCCCCC(=O)[O-]
REMARK SMILES IDX 15 1 16 2 17 3 18 4 19 5 20 6 21 7 22 8 23 9 24 10 25 11
REMARK SMILES IDX 26 12 27 13 28 14 29 15 30 16 14 17 13 18 12 19 11 20 10 21
REMARK SMILES IDX 9 22 8 23 7 24 6 25 5 26 4 27 3 28 2 29 1 30
REMARK H PARENT
REMARK Flexibility Score: inf
ROOT
ATOM      1  C   UNL     1       9.679   2.093  30.817  1.00  0.00     0.000 C 
ENDROOT
BRANCH   1   2
ATOM      2  C   UNL     1       9.928   3.341  29.946  1.00  0.00     0.000 C 
BRANCH   2   3
ATOM      3  C   UNL     1       9.884   4.685  30.700  1.00  0.00     0.000 C 
BRANCH   3   4
ATOM      4  C   UNL     1      11.242   5.176  31.242  1.00  0.00     0.000 C 
BRANCH   4   5
ATOM      5  C   UNL     1      11.237   6.604  31.818  1.00  0.00     0.000 C 
BRANCH   5   6
ATOM      6  C   UNL     1      10.029   6.872  32.733  1.00  0.00     0.000 C 
BRANCH   6   7
ATOM      7  C   UNL     1      10.434   7.079  34.203  1.00  0.00     0.000 C 
BRANCH   7   8
ATOM      8  C   UNL     1       9.867   5.992  35.132  1.00  0.00     0.000 C 
BRANCH   8   9
ATOM      9  C   UNL     1       9.037   4.937  34.378  1.00  0.00     0.000 C 
BRANCH   9  10
ATOM     10  C   UNL     1       9.693   3.544  34.272  1.00  0.00     0.000 C 
BRANCH  10  11
ATOM     11  C   UNL     1      11.047   3.399  34.996  1.00  0.00     0.000 C 
BRANCH  11  12
ATOM     12  C   UNL     1      12.280   3.354  34.070  1.00  0.00     0.006 C 
BRANCH  12  13
ATOM     13  C   UNL     1      13.273   4.507  34.281  1.00  0.00     0.053 C 
BRANCH  13  14
ATOM     14  C   UNL     1      14.604   4.016  34.767  1.00  0.00     0.041 C 
ATOM     15  O   UNL     1      15.640   4.204  34.078  1.00  0.00    -0.550 OA
ATOM     16  O   UNL     1      14.702   3.384  36.000  1.00  0.00    -0.550 OA
ENDBRANCH  13  14
ENDBRANCH  12  13
ENDBRANCH  11  12
ENDBRANCH  10  11
ENDBRANCH   9  10
ENDBRANCH   8   9
ENDBRANCH   7   8
ENDBRANCH   6   7
ENDBRANCH   5   6
ENDBRANCH   4   5
ENDBRANCH   3   4
ENDBRANCH   2   3
ENDBRANCH   1   2
BRANCH   1  17
ATOM     17  C   UNL     1      10.951   1.384  31.314  1.00  0.00     0.000 C 
BRANCH  17  18
ATOM     18  C   UNL     1      12.163   1.617  30.399  1.00  0.00     0.000 C 
BRANCH  18  19
ATOM     19  C   UNL     1      13.426   0.981  30.992  1.00  0.00     0.000 C 
BRANCH  19  20
ATOM     20  C   UNL     1      14.552   2.017  31.133  1.00  0.00     0.000 C 
BRANCH  20  21
ATOM     21  C   UNL     1      14.083   3.444  30.802  1.00  0.00     0.000 C 
BRANCH  21  22
ATOM     22  C   UNL     1      15.216   4.324  30.245  1.00  0.00    -0.000 C 
BRANCH  22  23
ATOM     23  C   UNL     1      14.838   5.004  28.911  1.00  0.00    -0.000 C 
BRANCH  23  24
ATOM     24  C   UNL     1      13.343   4.895  28.554  1.00  0.00    -0.000 C 
BRANCH  24  25
ATOM     25  C   UNL     1      13.020   3.968  27.368  1.00  0.00    -0.000 C 
BRANCH  25  26
ATOM     26  C   UNL     1      14.239   3.510  26.540  1.00  0.00    -0.000 C 
BRANCH  26  27
ATOM     27  C   UNL     1      14.201   2.040  26.084  1.00  0.00    -0.000 C 
BRANCH  27  28
ATOM     28  C   UNL     1      14.891   1.089  27.073  1.00  0.00    -0.000 C 
BRANCH  28  29
ATOM     29  C   UNL     1      13.907   0.036  27.597  1.00  0.00    -0.003 C 
ATOM     30  C   UNL     1      12.531   0.202  26.961  1.00  0.00     0.004 C 
ENDBRANCH  28  29
ENDBRANCH  27  28
ENDBRANCH  26  27
ENDBRANCH  25  26
ENDBRANCH  24  25
ENDBRANCH  23  24
ENDBRANCH  22  23
ENDBRANCH  21  22
ENDBRANCH  20  21
ENDBRANCH  19  20
ENDBRANCH  18  19
ENDBRANCH  17  18
ENDBRANCH   1  17
TORSDOF 26
ENDMDL
