MODEL 1
REMARK VINA RESULT:    -3.159      0.000      0.000
REMARK INTER + INTRA:          -8.575
REMARK INTER:                  -5.929
REMARK INTRA:                  -2.646
REMARK UNBOUND:                -2.646
REMARK SMILES CCCCCCCCC=CCCCCCCCC(=O)[O-]
REMARK SMILES IDX 10 1 9 2 11 3 12 4 13 5 14 6 15 7 16 8 17 9 18 10 19 11
REMARK SMILES IDX 20 12 8 13 7 14 6 15 5 16 4 17 3 18 2 19 1 20
REMARK H PARENT
REMARK Flexibility Score: inf
ROOT
ATOM      1  C   UNL     1     139.276 137.658 143.611  1.00  0.00    -0.031 C 
ATOM      2  C   UNL     1     139.582 137.841 142.317  1.00  0.00    -0.031 C 
ENDROOT
BRANCH   1   3
ATOM      3  C   UNL     1     137.891 137.261 144.044  1.00  0.00     0.027 C 
BRANCH   3   4
ATOM      4  C   UNL     1     136.844 137.675 142.998  1.00  0.00     0.004 C 
BRANCH   4   5
ATOM      5  C   UNL     1     136.028 136.485 142.471  1.00  0.00     0.000 C 
BRANCH   5   6
ATOM      6  C   UNL     1     136.504 136.010 141.087  1.00  0.00     0.000 C 
BRANCH   6   7
ATOM      7  C   UNL     1     136.076 134.566 140.780  1.00  0.00     0.000 C 
BRANCH   7   8
ATOM      8  C   UNL     1     136.276 133.621 141.979  1.00  0.00     0.006 C 
BRANCH   8   9
ATOM      9  C   UNL     1     135.285 132.449 141.964  1.00  0.00     0.053 C 
BRANCH   9  10
ATOM     10  C   UNL     1     134.199 132.624 142.981  1.00  0.00     0.041 C 
ATOM     11  O   UNL     1     133.229 131.822 143.016  1.00  0.00    -0.550 OA
ATOM     12  O   UNL     1     134.272 133.656 143.909  1.00  0.00    -0.550 OA
ENDBRANCH   9  10
ENDBRANCH   8   9
ENDBRANCH   7   8
ENDBRANCH   6   7
ENDBRANCH   5   6
ENDBRANCH   4   5
ENDBRANCH   3   4
ENDBRANCH   1   3
BRANCH   2  13
ATOM     13  C   UNL     1     140.967 138.238 141.886  1.00  0.00     0.027 C 
BRANCH  13  14
ATOM     14  C   UNL     1     142.006 137.865 142.953  1.00  0.00     0.004 C 
BRANCH  14  15
ATOM     15  C   UNL     1     142.969 136.766 142.475  1.00  0.00     0.000 C 
BRANCH  15  16
ATOM     16  C   UNL     1     143.125 135.633 143.504  1.00  0.00     0.000 C 
BRANCH  16  17
ATOM     17  C   UNL     1     141.774 135.205 144.113  1.00  0.00    -0.000 C 
BRANCH  17  18
ATOM     18  C   UNL     1     141.160 133.950 143.464  1.00  0.00    -0.000 C 
BRANCH  18  19
ATOM     19  C   UNL     1     139.807 134.200 142.768  1.00  0.00    -0.003 C 
ATOM     20  C   UNL     1     139.940 134.314 141.249  1.00  0.00     0.004 C 
ENDBRANCH  18  19
ENDBRANCH  17  18
ENDBRANCH  16  17
ENDBRANCH  15  16
ENDBRANCH  14  15
ENDBRANCH  13  14
ENDBRANCH   2  13
TORSDOF 15
ENDMDL
MODEL 2
REMARK VINA RESULT:    -3.139      1.493      3.422
REMARK INTER + INTRA:          -8.538
REMARK INTER:                  -5.517
REMARK INTRA:                  -3.021
REMARK UNBOUND:                -2.646
REMARK SMILES CCCCCCCCC=CCCCCCCCC(=O)[O-]
REMARK SMILES IDX 10 1 9 2 11 3 12 4 13 5 14 6 15 7 16 8 17 9 18 10 19 11
REMARK SMILES IDX 20 12 8 13 7 14 6 15 5 16 4 17 3 18 2 19 1 20
REMARK H PARENT
REMARK Flexibility Score: inf
ROOT
ATOM      1  C   UNL     1     136.056 136.730 142.593  1.00  0.00    -0.031 C 
ATOM      2  C   UNL     1     136.779 137.808 142.936  1.00  0.00    -0.031 C 
ENDROOT
BRANCH   1   3
ATOM      3  C   UNL     1     135.292 136.673 141.298  1.00  0.00     0.027 C 
BRANCH   3   4
ATOM      4  C   UNL     1     135.593 135.373 140.536  1.00  0.00     0.004 C 
BRANCH   4   5
ATOM      5  C   UNL     1     137.028 134.872 140.761  1.00  0.00     0.000 C 
BRANCH   5   6
ATOM      6  C   UNL     1     137.074 133.401 141.212  1.00  0.00     0.000 C 
BRANCH   6   7
ATOM      7  C   UNL     1     135.870 133.014 142.086  1.00  0.00     0.000 C 
BRANCH   7   8
ATOM      8  C   UNL     1     136.194 133.050 143.591  1.00  0.00     0.006 C 
BRANCH   8   9
ATOM      9  C   UNL     1     135.075 133.711 144.408  1.00  0.00     0.053 C 
BRANCH   9  10
ATOM     10  C   UNL     1     134.373 132.726 145.291  1.00  0.00     0.041 C 
ATOM     11  O   UNL     1     134.494 132.797 146.542  1.00  0.00    -0.550 OA
ATOM     12  O   UNL     1     133.560 131.745 144.734  1.00  0.00    -0.550 OA
ENDBRANCH   9  10
ENDBRANCH   8   9
ENDBRANCH   7   8
ENDBRANCH   6   7
ENDBRANCH   5   6
ENDBRANCH   4   5
ENDBRANCH   3   4
ENDBRANCH   1   3
BRANCH   2  13
ATOM     13  C   UNL     1     137.541 137.863 144.230  1.00  0.00     0.027 C 
BRANCH  13  14
ATOM     14  C   UNL     1     137.601 136.481 144.896  1.00  0.00     0.004 C 
BRANCH  14  15
ATOM     15  C   UNL     1     139.025 135.903 144.925  1.00  0.00     0.000 C 
BRANCH  15  16
ATOM     16  C   UNL     1     139.358 135.093 143.660  1.00  0.00     0.000 C 
BRANCH  16  17
ATOM     17  C   UNL     1     140.545 135.690 142.877  1.00  0.00    -0.000 C 
BRANCH  17  18
ATOM     18  C   UNL     1     140.144 136.764 141.848  1.00  0.00    -0.000 C 
BRANCH  18  19
ATOM     19  C   UNL     1     140.666 138.176 142.176  1.00  0.00    -0.003 C 
ATOM     20  C   UNL     1     142.121 138.170 142.649  1.00  0.00     0.004 C 
ENDBRANCH  18  19
ENDBRANCH  17  18
ENDBRANCH  16  17
ENDBRANCH  15  16
ENDBRANCH  14  15
ENDBRANCH  13  14
ENDBRANCH   2  13
TORSDOF 15
ENDMDL
MODEL 3
REMARK VINA RESULT:    -3.131      1.634      2.111
REMARK INTER + INTRA:          -8.523
REMARK INTER:                  -5.564
REMARK INTRA:                  -2.959
REMARK UNBOUND:                -2.646
REMARK SMILES CCCCCCCCC=CCCCCCCCC(=O)[O-]
REMARK SMILES IDX 10 1 9 2 11 3 12 4 13 5 14 6 15 7 16 8 17 9 18 10 19 11
REMARK SMILES IDX 20 12 8 13 7 14 6 15 5 16 4 17 3 18 2 19 1 20
REMARK H PARENT
REMARK Flexibility Score: inf
ROOT
ATOM      1  C   UNL     1     139.263 137.780 143.748  1.00  0.00    -0.031 C 
ATOM      2  C   UNL     1     139.587 137.881 142.450  1.00  0.00    -0.031 C 
ENDROOT
BRANCH   1   3
ATOM      3  C   UNL     1     137.861 137.456 144.188  1.00  0.00     0.027 C 
BRANCH   3   4
ATOM      4  C   UNL     1     136.845 137.793 143.086  1.00  0.00     0.004 C 
BRANCH   4   5
ATOM      5  C   UNL     1     136.009 136.577 142.655  1.00  0.00     0.000 C 
BRANCH   5   6
ATOM      6  C   UNL     1     136.046 136.346 141.134  1.00  0.00     0.000 C 
BRANCH   6   7
ATOM      7  C   UNL     1     137.297 135.573 140.686  1.00  0.00     0.000 C 
BRANCH   7   8
ATOM      8  C   UNL     1     137.786 134.571 141.747  1.00  0.00     0.006 C 
BRANCH   8   9
ATOM      9  C   UNL     1     137.741 133.123 141.239  1.00  0.00     0.053 C 
BRANCH   9  10
ATOM     10  C   UNL     1     136.348 132.696 140.893  1.00  0.00     0.041 C 
ATOM     11  O   UNL     1     136.085 132.266 139.739  1.00  0.00    -0.550 OA
ATOM     12  O   UNL     1     135.344 132.747 141.853  1.00  0.00    -0.550 OA
ENDBRANCH   9  10
ENDBRANCH   8   9
ENDBRANCH   7   8
ENDBRANCH   6   7
ENDBRANCH   5   6
ENDBRANCH   4   5
ENDBRANCH   3   4
ENDBRANCH   1   3
BRANCH   2  13
ATOM     13  C   UNL     1     140.988 138.205 142.013  1.00  0.00     0.027 C 
BRANCH  13  14
ATOM     14  C   UNL     1     141.631 137.014 141.289  1.00  0.00     0.004 C 
BRANCH  14  15
ATOM     15  C   UNL     1     142.139 135.938 142.263  1.00  0.00     0.000 C 
BRANCH  15  16
ATOM     16  C   UNL     1     141.401 134.598 142.097  1.00  0.00     0.000 C 
BRANCH  16  17
ATOM     17  C   UNL     1     141.116 133.916 143.450  1.00  0.00    -0.000 C 
BRANCH  17  18
ATOM     18  C   UNL     1     141.371 134.814 144.675  1.00  0.00    -0.000 C 
BRANCH  18  19
ATOM     19  C   UNL     1     140.183 134.896 145.654  1.00  0.00    -0.003 C 
ATOM     20  C   UNL     1     139.001 134.028 145.218  1.00  0.00     0.004 C 
ENDBRANCH  18  19
ENDBRANCH  17  18
ENDBRANCH  16  17
ENDBRANCH  15  16
ENDBRANCH  14  15
ENDBRANCH  13  14
ENDBRANCH   2  13
TORSDOF 15
ENDMDL
MODEL 4
REMARK VINA RESULT:    -3.124      6.836      9.587
REMARK INTER + INTRA:          -8.510
REMARK INTER:                  -6.387
REMARK INTRA:                  -2.124
REMARK UNBOUND:                -2.646
REMARK SMILES CCCCCCCCC=CCCCCCCCC(=O)[O-]
REMARK SMILES IDX 10 1 9 2 11 3 12 4 13 5 14 6 15 7 16 8 17 9 18 10 19 11
REMARK SMILES IDX 20 12 8 13 7 14 6 15 5 16 4 17 3 18 2 19 1 20
REMARK H PARENT
REMARK Flexibility Score: inf
ROOT
ATOM      1  C   UNL     1     134.046 129.138 135.029  1.00  0.00    -0.031 C 
ATOM      2  C   UNL     1     135.102 129.967 135.057  1.00  0.00    -0.031 C 
ENDROOT
BRANCH   1   3
ATOM      3  C   UNL     1     133.863 128.062 136.064  1.00  0.00     0.027 C 
BRANCH   3   4
ATOM      4  C   UNL     1     133.100 128.595 137.287  1.00  0.00     0.004 C 
BRANCH   4   5
ATOM      5  C   UNL     1     133.387 127.791 138.564  1.00  0.00     0.000 C 
BRANCH   5   6
ATOM      6  C   UNL     1     134.104 128.627 139.639  1.00  0.00     0.000 C 
BRANCH   6   7
ATOM      7  C   UNL     1     134.937 129.771 139.039  1.00  0.00     0.000 C 
BRANCH   7   8
ATOM      8  C   UNL     1     136.250 130.013 139.806  1.00  0.00     0.006 C 
BRANCH   8   9
ATOM      9  C   UNL     1     136.420 129.044 140.984  1.00  0.00     0.053 C 
BRANCH   9  10
ATOM     10  C   UNL     1     136.481 129.764 142.295  1.00  0.00     0.041 C 
ATOM     11  O   UNL     1     136.241 130.999 142.351  1.00  0.00    -0.550 OA
ATOM     12  O   UNL     1     136.776 129.067 143.461  1.00  0.00    -0.550 OA
ENDBRANCH   9  10
ENDBRANCH   8   9
ENDBRANCH   7   8
ENDBRANCH   6   7
ENDBRANCH   5   6
ENDBRANCH   4   5
ENDBRANCH   3   4
ENDBRANCH   1   3
BRANCH   2  13
ATOM     13  C   UNL     1     135.283 131.042 134.021  1.00  0.00     0.027 C 
BRANCH  13  14
ATOM     14  C   UNL     1     136.027 130.503 132.791  1.00  0.00     0.004 C 
BRANCH  14  15
ATOM     15  C   UNL     1     137.189 129.570 133.168  1.00  0.00     0.000 C 
BRANCH  15  16
ATOM     16  C   UNL     1     138.564 130.236 132.979  1.00  0.00     0.000 C 
BRANCH  16  17
ATOM     17  C   UNL     1     139.223 130.608 134.322  1.00  0.00    -0.000 C 
BRANCH  17  18
ATOM     18  C   UNL     1     138.742 129.762 135.516  1.00  0.00    -0.000 C 
BRANCH  18  19
ATOM     19  C   UNL     1     138.357 130.588 136.758  1.00  0.00    -0.003 C 
ATOM     20  C   UNL     1     137.953 132.022 136.409  1.00  0.00     0.004 C 
ENDBRANCH  18  19
ENDBRANCH  17  18
ENDBRANCH  16  17
ENDBRANCH  15  16
ENDBRANCH  14  15
ENDBRANCH  13  14
ENDBRANCH   2  13
TORSDOF 15
ENDMDL
MODEL 5
REMARK VINA RESULT:    -3.106      3.891      5.558
REMARK INTER + INTRA:          -8.476
REMARK INTER:                  -6.210
REMARK INTRA:                  -2.266
REMARK UNBOUND:                -2.646
REMARK SMILES CCCCCCCCC=CCCCCCCCC(=O)[O-]
REMARK SMILES IDX 10 1 9 2 11 3 12 4 13 5 14 6 15 7 16 8 17 9 18 10 19 11
REMARK SMILES IDX 20 12 8 13 7 14 6 15 5 16 4 17 3 18 2 19 1 20
REMARK H PARENT
REMARK Flexibility Score: inf
ROOT
ATOM      1  C   UNL     1     139.128 134.424 141.680  1.00  0.00    -0.031 C 
ATOM      2  C   UNL     1     139.507 135.589 141.133  1.00  0.00    -0.031 C 
ENDROOT
BRANCH   1   3
ATOM      3  C   UNL     1     138.276 133.439 140.927  1.00  0.00     0.027 C 
BRANCH   3   4
ATOM      4  C   UNL     1     138.035 133.908 139.483  1.00  0.00     0.004 C 
BRANCH   4   5
ATOM      5  C   UNL     1     136.680 133.443 138.927  1.00  0.00     0.000 C 
BRANCH   5   6
ATOM      6  C   UNL     1     136.280 132.048 139.439  1.00  0.00     0.000 C 
BRANCH   6   7
ATOM      7  C   UNL     1     136.886 130.914 138.596  1.00  0.00     0.000 C 
BRANCH   7   8
ATOM      8  C   UNL     1     135.998 130.525 137.400  1.00  0.00     0.006 C 
BRANCH   8   9
ATOM      9  C   UNL     1     136.722 130.705 136.059  1.00  0.00     0.053 C 
BRANCH   9  10
ATOM     10  C   UNL     1     136.028 131.697 135.177  1.00  0.00     0.041 C 
ATOM     11  O   UNL     1     135.297 131.302 134.231  1.00  0.00    -0.550 OA
ATOM     12  O   UNL     1     136.164 133.059 135.418  1.00  0.00    -0.550 OA
ENDBRANCH   9  10
ENDBRANCH   8   9
ENDBRANCH   7   8
ENDBRANCH   6   7
ENDBRANCH   5   6
ENDBRANCH   4   5
ENDBRANCH   3   4
ENDBRANCH   1   3
BRANCH   2  13
ATOM     13  C   UNL     1     140.357 136.572 141.887  1.00  0.00     0.027 C 
BRANCH  13  14
ATOM     14  C   UNL     1     139.535 137.793 142.325  1.00  0.00     0.004 C 
BRANCH  14  15
ATOM     15  C   UNL     1     138.769 137.547 143.635  1.00  0.00     0.000 C 
BRANCH  15  16
ATOM     16  C   UNL     1     137.286 137.942 143.533  1.00  0.00     0.000 C 
BRANCH  16  17
ATOM     17  C   UNL     1     136.381 136.738 143.203  1.00  0.00    -0.000 C 
BRANCH  17  18
ATOM     18  C   UNL     1     136.027 136.606 141.709  1.00  0.00    -0.000 C 
BRANCH  18  19
ATOM     19  C   UNL     1     134.836 135.670 141.425  1.00  0.00    -0.003 C 
ATOM     20  C   UNL     1     134.958 134.328 142.148  1.00  0.00     0.004 C 
ENDBRANCH  18  19
ENDBRANCH  17  18
ENDBRANCH  16  17
ENDBRANCH  15  16
ENDBRANCH  14  15
ENDBRANCH  13  14
ENDBRANCH   2  13
TORSDOF 15
ENDMDL
MODEL 6
REMARK VINA RESULT:    -3.097      2.876      5.029
REMARK INTER + INTRA:          -8.459
REMARK INTER:                  -5.450
REMARK INTRA:                  -3.009
REMARK UNBOUND:                -2.646
REMARK SMILES CCCCCCCCC=CCCCCCCCC(=O)[O-]
REMARK SMILES IDX 10 1 9 2 11 3 12 4 13 5 14 6 15 7 16 8 17 9 18 10 19 11
REMARK SMILES IDX 20 12 8 13 7 14 6 15 5 16 4 17 3 18 2 19 1 20
REMARK H PARENT
REMARK Flexibility Score: inf
ROOT
ATOM      1  C   UNL     1     136.869 137.681 142.758  1.00  0.00    -0.031 C 
ATOM      2  C   UNL     1     135.824 136.869 142.534  1.00  0.00    -0.031 C 
ENDROOT
BRANCH   1   3
ATOM      3  C   UNL     1     137.411 137.903 144.144  1.00  0.00     0.027 C 
BRANCH   3   4
ATOM      4  C   UNL     1     138.621 136.996 144.416  1.00  0.00     0.004 C 
BRANCH   4   5
ATOM      5  C   UNL     1     138.215 135.583 144.865  1.00  0.00     0.000 C 
BRANCH   5   6
ATOM      6  C   UNL     1     137.319 135.598 146.117  1.00  0.00     0.000 C 
BRANCH   6   7
ATOM      7  C   UNL     1     135.928 135.000 145.853  1.00  0.00     0.000 C 
BRANCH   7   8
ATOM      8  C   UNL     1     134.796 136.025 146.048  1.00  0.00     0.006 C 
BRANCH   8   9
ATOM      9  C   UNL     1     133.528 135.643 145.270  1.00  0.00     0.053 C 
BRANCH   9  10
ATOM     10  C   UNL     1     132.287 135.884 146.074  1.00  0.00     0.041 C 
ATOM     11  O   UNL     1     131.451 136.748 145.703  1.00  0.00    -0.550 OA
ATOM     12  O   UNL     1     132.040 135.133 147.217  1.00  0.00    -0.550 OA
ENDBRANCH   9  10
ENDBRANCH   8   9
ENDBRANCH   7   8
ENDBRANCH   6   7
ENDBRANCH   5   6
ENDBRANCH   4   5
ENDBRANCH   3   4
ENDBRANCH   1   3
BRANCH   2  13
ATOM     13  C   UNL     1     135.283 136.648 141.149  1.00  0.00     0.027 C 
BRANCH  13  14
ATOM     14  C   UNL     1     134.970 135.165 140.908  1.00  0.00     0.004 C 
BRANCH  14  15
ATOM     15  C   UNL     1     134.946 134.349 142.211  1.00  0.00     0.000 C 
BRANCH  15  16
ATOM     16  C   UNL     1     135.911 133.152 142.174  1.00  0.00     0.000 C 
BRANCH  16  17
ATOM     17  C   UNL     1     136.699 133.076 140.851  1.00  0.00    -0.000 C 
BRANCH  17  18
ATOM     18  C   UNL     1     138.229 133.033 141.031  1.00  0.00    -0.000 C 
BRANCH  18  19
ATOM     19  C   UNL     1     138.850 134.377 141.456  1.00  0.00    -0.003 C 
ATOM     20  C   UNL     1     138.702 135.459 140.385  1.00  0.00     0.004 C 
ENDBRANCH  18  19
ENDBRANCH  17  18
ENDBRANCH  16  17
ENDBRANCH  15  16
ENDBRANCH  14  15
ENDBRANCH  13  14
ENDBRANCH   2  13
TORSDOF 15
ENDMDL
MODEL 7
REMARK VINA RESULT:    -3.074      3.284      5.539
REMARK INTER + INTRA:          -8.417
REMARK INTER:                  -5.229
REMARK INTRA:                  -3.188
REMARK UNBOUND:                -2.646
REMARK SMILES CCCCCCCCC=CCCCCCCCC(=O)[O-]
REMARK SMILES IDX 10 1 9 2 11 3 12 4 13 5 14 6 15 7 16 8 17 9 18 10 19 11
REMARK SMILES IDX 20 12 8 13 7 14 6 15 5 16 4 17 3 18 2 19 1 20
REMARK H PARENT
REMARK Flexibility Score: inf
ROOT
ATOM      1  C   UNL     1     135.973 137.170 141.928  1.00  0.00    -0.031 C 
ATOM      2  C   UNL     1     136.330 136.942 143.202  1.00  0.00    -0.031 C 
ENDROOT
BRANCH   1   3
ATOM      3  C   UNL     1     135.071 136.227 141.181  1.00  0.00     0.027 C 
BRANCH   3   4
ATOM      4  C   UNL     1     135.393 134.764 141.526  1.00  0.00     0.004 C 
BRANCH   4   5
ATOM      5  C   UNL     1     136.166 134.047 140.408  1.00  0.00     0.000 C 
BRANCH   5   6
ATOM      6  C   UNL     1     137.689 134.233 140.531  1.00  0.00     0.000 C 
BRANCH   6   7
ATOM      7  C   UNL     1     138.204 133.952 141.952  1.00  0.00     0.000 C 
BRANCH   7   8
ATOM      8  C   UNL     1     139.349 134.895 142.364  1.00  0.00     0.006 C 
BRANCH   8   9
ATOM      9  C   UNL     1     139.527 136.057 141.376  1.00  0.00     0.053 C 
BRANCH   9  10
ATOM     10  C   UNL     1     140.608 136.998 141.810  1.00  0.00     0.041 C 
ATOM     11  O   UNL     1     140.322 138.173 142.160  1.00  0.00    -0.550 OA
ATOM     12  O   UNL     1     141.929 136.569 141.855  1.00  0.00    -0.550 OA
ENDBRANCH   9  10
ENDBRANCH   8   9
ENDBRANCH   7   8
ENDBRANCH   6   7
ENDBRANCH   5   6
ENDBRANCH   4   5
ENDBRANCH   3   4
ENDBRANCH   1   3
BRANCH   2  13
ATOM     13  C   UNL     1     137.231 137.886 143.947  1.00  0.00     0.027 C 
BRANCH  13  14
ATOM     14  C   UNL     1     138.263 137.118 144.786  1.00  0.00     0.004 C 
BRANCH  14  15
ATOM     15  C   UNL     1     137.624 136.388 145.980  1.00  0.00     0.000 C 
BRANCH  15  16
ATOM     16  C   UNL     1     137.820 134.864 145.910  1.00  0.00     0.000 C 
BRANCH  16  17
ATOM     17  C   UNL     1     136.514 134.093 146.191  1.00  0.00    -0.000 C 
BRANCH  17  18
ATOM     18  C   UNL     1     135.682 133.783 144.932  1.00  0.00    -0.000 C 
BRANCH  18  19
ATOM     19  C   UNL     1     134.204 134.208 145.034  1.00  0.00    -0.003 C 
ATOM     20  C   UNL     1     134.036 135.621 145.595  1.00  0.00     0.004 C 
ENDBRANCH  18  19
ENDBRANCH  17  18
ENDBRANCH  16  17
ENDBRANCH  15  16
ENDBRANCH  14  15
ENDBRANCH  13  14
ENDBRANCH   2  13
TORSDOF 15
ENDMDL
MODEL 8
REMARK VINA RESULT:    -3.073      2.318      2.954
REMARK INTER + INTRA:          -8.414
REMARK INTER:                  -5.964
REMARK INTRA:                  -2.451
REMARK UNBOUND:                -2.646
REMARK SMILES CCCCCCCCC=CCCCCCCCC(=O)[O-]
REMARK SMILES IDX 10 1 9 2 11 3 12 4 13 5 14 6 15 7 16 8 17 9 18 10 19 11
REMARK SMILES IDX 20 12 8 13 7 14 6 15 5 16 4 17 3 18 2 19 1 20
REMARK H PARENT
REMARK Flexibility Score: inf
ROOT
ATOM      1  C   UNL     1     139.728 137.561 142.995  1.00  0.00    -0.031 C 
ATOM      2  C   UNL     1     140.638 138.179 142.226  1.00  0.00    -0.031 C 
ENDROOT
BRANCH   1   3
ATOM      3  C   UNL     1     138.274 137.513 142.613  1.00  0.00     0.027 C 
BRANCH   3   4
ATOM      4  C   UNL     1     137.381 137.363 143.855  1.00  0.00     0.004 C 
BRANCH   4   5
ATOM      5  C   UNL     1     136.040 136.681 143.543  1.00  0.00     0.000 C 
BRANCH   5   6
ATOM      6  C   UNL     1     135.682 136.741 142.047  1.00  0.00     0.000 C 
BRANCH   6   7
ATOM      7  C   UNL     1     135.322 135.362 141.472  1.00  0.00     0.000 C 
BRANCH   7   8
ATOM      8  C   UNL     1     136.489 134.718 140.701  1.00  0.00     0.006 C 
BRANCH   8   9
ATOM      9  C   UNL     1     136.264 133.220 140.455  1.00  0.00     0.053 C 
BRANCH   9  10
ATOM     10  C   UNL     1     136.511 132.846 139.026  1.00  0.00     0.041 C 
ATOM     11  O   UNL     1     136.036 131.777 138.560  1.00  0.00    -0.550 OA
ATOM     12  O   UNL     1     137.242 133.691 138.200  1.00  0.00    -0.550 OA
ENDBRANCH   9  10
ENDBRANCH   8   9
ENDBRANCH   7   8
ENDBRANCH   6   7
ENDBRANCH   5   6
ENDBRANCH   4   5
ENDBRANCH   3   4
ENDBRANCH   1   3
BRANCH   2  13
ATOM     13  C   UNL     1     142.090 138.226 142.610  1.00  0.00     0.027 C 
BRANCH  13  14
ATOM     14  C   UNL     1     142.862 137.049 141.996  1.00  0.00     0.004 C 
BRANCH  14  15
ATOM     15  C   UNL     1     142.806 137.047 140.459  1.00  0.00     0.000 C 
BRANCH  15  16
ATOM     16  C   UNL     1     142.551 135.643 139.882  1.00  0.00     0.000 C 
BRANCH  16  17
ATOM     17  C   UNL     1     141.216 135.559 139.115  1.00  0.00    -0.000 C 
BRANCH  17  18
ATOM     18  C   UNL     1     140.001 135.222 140.000  1.00  0.00    -0.000 C 
BRANCH  18  19
ATOM     19  C   UNL     1     140.139 133.902 140.783  1.00  0.00    -0.003 C 
ATOM     20  C   UNL     1     140.035 134.102 142.296  1.00  0.00     0.004 C 
ENDBRANCH  18  19
ENDBRANCH  17  18
ENDBRANCH  16  17
ENDBRANCH  15  16
ENDBRANCH  14  15
ENDBRANCH  13  14
ENDBRANCH   2  13
TORSDOF 15
ENDMDL
MODEL 9
REMARK VINA RESULT:    -3.047      3.238      5.898
REMARK INTER + INTRA:          -8.366
REMARK INTER:                  -5.973
REMARK INTRA:                  -2.393
REMARK UNBOUND:                -2.646
REMARK SMILES CCCCCCCCC=CCCCCCCCC(=O)[O-]
REMARK SMILES IDX 10 1 9 2 11 3 12 4 13 5 14 6 15 7 16 8 17 9 18 10 19 11
REMARK SMILES IDX 20 12 8 13 7 14 6 15 5 16 4 17 3 18 2 19 1 20
REMARK H PARENT
REMARK Flexibility Score: inf
ROOT
ATOM      1  C   UNL     1     140.902 138.253 142.260  1.00  0.00    -0.031 C 
ATOM      2  C   UNL     1     140.003 137.537 142.954  1.00  0.00    -0.031 C 
ENDROOT
BRANCH   1   3
ATOM      3  C   UNL     1     142.366 138.223 142.600  1.00  0.00     0.027 C 
BRANCH   3   4
ATOM      4  C   UNL     1     143.106 137.165 141.767  1.00  0.00     0.004 C 
BRANCH   4   5
ATOM      5  C   UNL     1     143.125 137.496 140.267  1.00  0.00     0.000 C 
BRANCH   5   6
ATOM      6  C   UNL     1     142.457 136.404 139.413  1.00  0.00     0.000 C 
BRANCH   6   7
ATOM      7  C   UNL     1     141.804 135.305 140.268  1.00  0.00     0.000 C 
BRANCH   7   8
ATOM      8  C   UNL     1     140.274 135.258 140.104  1.00  0.00     0.006 C 
BRANCH   8   9
ATOM      9  C   UNL     1     139.802 133.954 139.446  1.00  0.00     0.053 C 
BRANCH   9  10
ATOM     10  C   UNL     1     140.070 133.943 137.973  1.00  0.00     0.041 C 
ATOM     11  O   UNL     1     139.740 134.928 137.262  1.00  0.00    -0.550 OA
ATOM     12  O   UNL     1     140.711 132.857 137.389  1.00  0.00    -0.550 OA
ENDBRANCH   9  10
ENDBRANCH   8   9
ENDBRANCH   7   8
ENDBRANCH   6   7
ENDBRANCH   5   6
ENDBRANCH   4   5
ENDBRANCH   3   4
ENDBRANCH   1   3
BRANCH   2  13
ATOM     13  C   UNL     1     138.540 137.568 142.612  1.00  0.00     0.027 C 
BRANCH  13  14
ATOM     14  C   UNL     1     137.683 137.784 143.868  1.00  0.00     0.004 C 
BRANCH  14  15
ATOM     15  C   UNL     1     136.355 137.012 143.813  1.00  0.00     0.000 C 
BRANCH  15  16
ATOM     16  C   UNL     1     135.892 136.739 142.371  1.00  0.00     0.000 C 
BRANCH  16  17
ATOM     17  C   UNL     1     135.145 135.397 142.240  1.00  0.00    -0.000 C 
BRANCH  17  18
ATOM     18  C   UNL     1     135.888 134.199 142.863  1.00  0.00    -0.000 C 
BRANCH  18  19
ATOM     19  C   UNL     1     137.191 133.819 142.135  1.00  0.00    -0.003 C 
ATOM     20  C   UNL     1     138.413 133.866 143.054  1.00  0.00     0.004 C 
ENDBRANCH  18  19
ENDBRANCH  17  18
ENDBRANCH  16  17
ENDBRANCH  15  16
ENDBRANCH  14  15
ENDBRANCH  13  14
ENDBRANCH   2  13
TORSDOF 15
ENDMDL
