MODEL 1
REMARK VINA RESULT:    -3.422      0.000      0.000
REMARK INTER + INTRA:          -4.064
REMARK INTER:                  -3.922
REMARK INTRA:                  -0.141
REMARK UNBOUND:                -0.141
REMARK SMILES O=C([O-])C=Cc1ccc(O)cc1
REMARK SMILES IDX 6 1 7 2 12 3 8 4 11 5 9 6 5 7 4 8 2 9 1 10 3 11 10 12
REMARK H PARENT 10 13
REMARK Flexibility Score: inf
ROOT
ATOM      1  C   UNL     1     -18.306   4.898  20.800  1.00  0.00    -0.025 A 
ATOM      2  C   UNL     1     -18.201   3.498  20.727  1.00  0.00     0.012 A 
ATOM      3  C   UNL     1     -19.336   5.461  21.581  1.00  0.00     0.012 A 
ATOM      4  C   UNL     1     -19.117   2.679  21.395  1.00  0.00     0.047 A 
ATOM      5  C   UNL     1     -20.249   4.640  22.249  1.00  0.00     0.047 A 
ATOM      6  C   UNL     1     -20.144   3.248  22.157  1.00  0.00     0.115 A 
ENDROOT
BRANCH   1   7
ATOM      7  C   UNL     1     -17.305   5.724  20.082  1.00  0.00     0.010 C 
ATOM      8  C   UNL     1     -16.991   6.980  20.426  1.00  0.00     0.025 C 
BRANCH   8   9
ATOM      9  C   UNL     1     -15.999   7.768  19.676  1.00  0.00     0.064 C 
ATOM     10  O   UNL     1     -16.253   8.125  18.497  1.00  0.00    -0.545 OA
ATOM     11  O   UNL     1     -14.783   8.125  20.250  1.00  0.00    -0.545 OA
ENDBRANCH   8   9
ENDBRANCH   1   7
BRANCH   6  12
ATOM     12  O   UNL     1     -21.062   2.443  22.827  1.00  0.00    -0.508 OA
ATOM     13  H   UNL     1     -22.029   2.383  22.530  1.00  0.00     0.293 HD
ENDBRANCH   6  12
TORSDOF 3
ENDMDL
MODEL 2
REMARK VINA RESULT:    -1.469      1.036      5.751
REMARK INTER + INTRA:          -1.826
REMARK INTER:                  -1.681
REMARK INTRA:                  -0.144
REMARK UNBOUND:                -0.141
REMARK SMILES O=C([O-])C=Cc1ccc(O)cc1
REMARK SMILES IDX 6 1 7 2 12 3 8 4 11 5 9 6 5 7 4 8 2 9 1 10 3 11 10 12
REMARK H PARENT 10 13
REMARK Flexibility Score: inf
ROOT
ATOM      1  C   UNL     1     -18.433   5.842  20.964  1.00  0.00    -0.025 A 
ATOM      2  C   UNL     1     -17.454   5.223  20.167  1.00  0.00     0.012 A 
ATOM      3  C   UNL     1     -18.385   7.241  21.134  1.00  0.00     0.012 A 
ATOM      4  C   UNL     1     -16.435   5.977  19.577  1.00  0.00     0.047 A 
ATOM      5  C   UNL     1     -17.366   7.992  20.540  1.00  0.00     0.047 A 
ATOM      6  C   UNL     1     -16.388   7.364  19.763  1.00  0.00     0.115 A 
ENDROOT
BRANCH   1   7
ATOM      7  C   UNL     1     -19.499   5.001  21.561  1.00  0.00     0.010 C 
ATOM      8  C   UNL     1     -19.283   3.789  22.091  1.00  0.00     0.025 C 
BRANCH   8   9
ATOM      9  C   UNL     1     -20.374   2.984  22.662  1.00  0.00     0.064 C 
ATOM     10  O   UNL     1     -20.634   3.073  23.890  1.00  0.00    -0.545 OA
ATOM     11  O   UNL     1     -21.126   2.125  21.867  1.00  0.00    -0.545 OA
ENDBRANCH   8   9
ENDBRANCH   1   7
BRANCH   6  12
ATOM     12  O   UNL     1     -15.379   8.125  19.179  1.00  0.00    -0.508 OA
ATOM     13  H   UNL     1     -14.960   8.910  19.665  1.00  0.00     0.293 HD
ENDBRANCH   6  12
TORSDOF 3
ENDMDL
MODEL 3
REMARK VINA RESULT:    -0.690      7.510      8.638
REMARK INTER + INTRA:          -0.932
REMARK INTER:                  -0.778
REMARK INTRA:                  -0.154
REMARK UNBOUND:                -0.141
REMARK SMILES O=C([O-])C=Cc1ccc(O)cc1
REMARK SMILES IDX 6 1 7 2 12 3 8 4 11 5 9 6 5 7 4 8 2 9 1 10 3 11 10 12
REMARK H PARENT 10 13
REMARK Flexibility Score: inf
ROOT
ATOM      1  C   UNL     1     -18.718   2.944  14.339  1.00  0.00    -0.025 A 
ATOM      2  C   UNL     1     -18.408   1.609  14.028  1.00  0.00     0.012 A 
ATOM      3  C   UNL     1     -17.801   3.692  15.106  1.00  0.00     0.012 A 
ATOM      4  C   UNL     1     -17.226   1.025  14.492  1.00  0.00     0.047 A 
ATOM      5  C   UNL     1     -16.619   3.106  15.568  1.00  0.00     0.047 A 
ATOM      6  C   UNL     1     -16.329   1.772  15.265  1.00  0.00     0.115 A 
ENDROOT
BRANCH   1   7
ATOM      7  C   UNL     1     -19.980   3.522  13.815  1.00  0.00     0.010 C 
ATOM      8  C   UNL     1     -20.937   2.800  13.217  1.00  0.00     0.025 C 
BRANCH   8   9
ATOM      9  C   UNL     1     -22.170   3.418  12.701  1.00  0.00     0.064 C 
ATOM     10  O   UNL     1     -22.174   4.642  12.408  1.00  0.00    -0.545 OA
ATOM     11  O   UNL     1     -23.330   2.671  12.530  1.00  0.00    -0.545 OA
ENDBRANCH   8   9
ENDBRANCH   1   7
BRANCH   6  12
ATOM     12  O   UNL     1     -15.147   1.202  15.733  1.00  0.00    -0.508 OA
ATOM     13  H   UNL     1     -15.150   0.332  16.253  1.00  0.00     0.293 HD
ENDBRANCH   6  12
TORSDOF 3
ENDMDL
MODEL 4
REMARK VINA RESULT:    -0.515      8.229      9.415
REMARK INTER + INTRA:          -0.732
REMARK INTER:                  -0.592
REMARK INTRA:                  -0.140
REMARK UNBOUND:                -0.141
REMARK SMILES O=C([O-])C=Cc1ccc(O)cc1
REMARK SMILES IDX 6 1 7 2 12 3 8 4 11 5 9 6 5 7 4 8 2 9 1 10 3 11 10 12
REMARK H PARENT 10 13
REMARK Flexibility Score: inf
ROOT
ATOM      1  C   UNL     1     -20.295   2.806  14.019  1.00  0.00    -0.025 A 
ATOM      2  C   UNL     1     -19.624   1.570  14.025  1.00  0.00     0.012 A 
ATOM      3  C   UNL     1     -19.583   3.966  14.387  1.00  0.00     0.012 A 
ATOM      4  C   UNL     1     -18.284   1.489  14.415  1.00  0.00     0.047 A 
ATOM      5  C   UNL     1     -18.243   3.881  14.775  1.00  0.00     0.047 A 
ATOM      6  C   UNL     1     -17.590   2.645  14.793  1.00  0.00     0.115 A 
ENDROOT
BRANCH   1   7
ATOM      7  C   UNL     1     -21.714   2.842  13.588  1.00  0.00     0.010 C 
ATOM      8  C   UNL     1     -22.104   2.807  12.306  1.00  0.00     0.025 C 
BRANCH   8   9
ATOM      9  C   UNL     1     -23.525   2.857  11.924  1.00  0.00     0.064 C 
ATOM     10  O   UNL     1     -24.408   2.888  12.821  1.00  0.00    -0.545 OA
ATOM     11  O   UNL     1     -23.909   2.872  10.588  1.00  0.00    -0.545 OA
ENDBRANCH   8   9
ENDBRANCH   1   7
BRANCH   6  12
ATOM     12  O   UNL     1     -16.255   2.576  15.182  1.00  0.00    -0.508 OA
ATOM     13  H   UNL     1     -15.502   2.719  14.519  1.00  0.00     0.293 HD
ENDBRANCH   6  12
TORSDOF 3
ENDMDL
