MODEL 1
REMARK VINA RESULT:    -4.442      0.000      0.000
REMARK INTER + INTRA:          -4.879
REMARK INTER:                  -4.831
REMARK INTRA:                  -0.048
REMARK UNBOUND:                -0.048
REMARK SMILES COc1cc2ccc(=O)oc2cc1O
REMARK SMILES IDX 3 1 13 2 12 3 11 4 5 5 4 6 6 7 7 8 8 9 9 10 10 11 2 12 1 13
REMARK SMILES IDX 14 14
REMARK H PARENT 14 15
REMARK Flexibility Score: inf
ROOT
ATOM      1  C   UNL     1      50.319  47.661  14.372  1.00  0.00     0.161 A 
ATOM      2  C   UNL     1      51.487  47.041  13.901  1.00  0.00     0.161 A 
ATOM      3  C   UNL     1      52.197  47.592  12.825  1.00  0.00     0.098 A 
ATOM      4  C   UNL     1      51.748  48.764  12.211  1.00  0.00     0.142 A 
ATOM      5  C   UNL     1      50.575  49.394  12.678  1.00  0.00     0.022 A 
ATOM      6  C   UNL     1      49.865  48.844  13.754  1.00  0.00     0.062 A 
ATOM      7  C   UNL     1      50.152  50.566  12.043  1.00  0.00     0.019 A 
ATOM      8  C   UNL     1      50.892  51.074  10.977  1.00  0.00     0.094 A 
ATOM      9  C   UNL     1      52.045  50.395  10.568  1.00  0.00     0.336 A 
ATOM     10  O   UNL     1      52.728  50.838   9.608  1.00  0.00    -0.246 OA
ATOM     11  O   UNL     1      52.427  49.283  11.190  1.00  0.00    -0.423 OA
ENDROOT
BRANCH   1  12
ATOM     12  O   UNL     1      49.641  47.075  15.452  1.00  0.00    -0.493 OA
ATOM     13  C   UNL     1      48.578  46.135  15.323  1.00  0.00     0.278 C 
ENDBRANCH   1  12
BRANCH   2  14
ATOM     14  O   UNL     1      51.938  45.872  14.512  1.00  0.00    -0.504 OA
ATOM     15  H   UNL     1      51.397  45.015  14.481  1.00  0.00     0.293 HD
ENDBRANCH   2  14
TORSDOF 2
ENDMDL
MODEL 2
REMARK VINA RESULT:    -4.120      3.306      5.068
REMARK INTER + INTRA:          -4.529
REMARK INTER:                  -4.464
REMARK INTRA:                  -0.065
REMARK UNBOUND:                -0.048
REMARK SMILES COc1cc2ccc(=O)oc2cc1O
REMARK SMILES IDX 3 1 13 2 12 3 11 4 5 5 4 6 6 7 7 8 8 9 9 10 10 11 2 12 1 13
REMARK SMILES IDX 14 14
REMARK H PARENT 14 15
REMARK Flexibility Score: inf
ROOT
ATOM      1  C   UNL     1      51.107  50.875  10.188  1.00  0.00     0.161 A 
ATOM      2  C   UNL     1      52.505  50.974  10.121  1.00  0.00     0.161 A 
ATOM      3  C   UNL     1      53.267  51.044  11.296  1.00  0.00     0.098 A 
ATOM      4  C   UNL     1      52.641  51.015  12.545  1.00  0.00     0.142 A 
ATOM      5  C   UNL     1      51.235  50.916  12.621  1.00  0.00     0.022 A 
ATOM      6  C   UNL     1      50.473  50.846  11.447  1.00  0.00     0.062 A 
ATOM      7  C   UNL     1      50.638  50.889  13.886  1.00  0.00     0.019 A 
ATOM      8  C   UNL     1      51.440  50.962  15.024  1.00  0.00     0.094 A 
ATOM      9  C   UNL     1      52.827  51.059  14.871  1.00  0.00     0.336 A 
ATOM     10  O   UNL     1      53.567  51.125  15.886  1.00  0.00    -0.246 OA
ATOM     11  O   UNL     1      53.370  51.081  13.657  1.00  0.00    -0.423 OA
ENDROOT
BRANCH   1  12
ATOM     12  O   UNL     1      50.384  50.807   8.987  1.00  0.00    -0.493 OA
ATOM     13  C   UNL     1      49.752  49.631   8.490  1.00  0.00     0.278 C 
ENDBRANCH   1  12
BRANCH   2  14
ATOM     14  O   UNL     1      53.133  51.002   8.877  1.00  0.00    -0.504 OA
ATOM     15  H   UNL     1      53.822  50.307   8.615  1.00  0.00     0.293 HD
ENDBRANCH   2  14
TORSDOF 2
ENDMDL
MODEL 3
REMARK VINA RESULT:    -4.118      1.785      5.485
REMARK INTER + INTRA:          -4.527
REMARK INTER:                  -4.464
REMARK INTRA:                  -0.063
REMARK UNBOUND:                -0.048
REMARK SMILES COc1cc2ccc(=O)oc2cc1O
REMARK SMILES IDX 3 1 13 2 12 3 11 4 5 5 4 6 6 7 7 8 8 9 9 10 10 11 2 12 1 13
REMARK SMILES IDX 14 14
REMARK H PARENT 14 15
REMARK Flexibility Score: inf
ROOT
ATOM      1  C   UNL     1      52.006  48.628  12.838  1.00  0.00     0.161 A 
ATOM      2  C   UNL     1      50.913  49.468  13.103  1.00  0.00     0.161 A 
ATOM      3  C   UNL     1      49.796  48.979  13.796  1.00  0.00     0.098 A 
ATOM      4  C   UNL     1      49.761  47.651  14.229  1.00  0.00     0.142 A 
ATOM      5  C   UNL     1      50.857  46.801  13.967  1.00  0.00     0.022 A 
ATOM      6  C   UNL     1      51.973  47.288  13.275  1.00  0.00     0.062 A 
ATOM      7  C   UNL     1      50.792  45.477  14.414  1.00  0.00     0.019 A 
ATOM      8  C   UNL     1      49.660  45.039  15.099  1.00  0.00     0.094 A 
ATOM      9  C   UNL     1      48.612  45.939  15.323  1.00  0.00     0.336 A 
ATOM     10  O   UNL     1      47.582  45.563  15.939  1.00  0.00    -0.246 OA
ATOM     11  O   UNL     1      48.699  47.193  14.887  1.00  0.00    -0.423 OA
ENDROOT
BRANCH   1  12
ATOM     12  O   UNL     1      53.102  49.160  12.141  1.00  0.00    -0.493 OA
ATOM     13  C   UNL     1      54.299  49.629  12.757  1.00  0.00     0.278 C 
ENDBRANCH   1  12
BRANCH   2  14
ATOM     14  O   UNL     1      50.944  50.793  12.672  1.00  0.00    -0.504 OA
ATOM     15  H   UNL     1      50.095  51.298  12.446  1.00  0.00     0.293 HD
ENDBRANCH   2  14
TORSDOF 2
ENDMDL
MODEL 4
REMARK VINA RESULT:    -4.039     15.555     17.539
REMARK INTER + INTRA:          -4.441
REMARK INTER:                  -4.396
REMARK INTRA:                  -0.045
REMARK UNBOUND:                -0.048
REMARK SMILES COc1cc2ccc(=O)oc2cc1O
REMARK SMILES IDX 3 1 13 2 12 3 11 4 5 5 4 6 6 7 7 8 8 9 9 10 10 11 2 12 1 13
REMARK SMILES IDX 14 14
REMARK H PARENT 14 15
REMARK Flexibility Score: inf
ROOT
ATOM      1  C   UNL     1      61.873  33.881  14.646  1.00  0.00     0.161 A 
ATOM      2  C   UNL     1      61.879  34.177  13.275  1.00  0.00     0.161 A 
ATOM      3  C   UNL     1      60.673  34.376  12.588  1.00  0.00     0.098 A 
ATOM      4  C   UNL     1      59.454  34.282  13.263  1.00  0.00     0.142 A 
ATOM      5  C   UNL     1      59.439  33.985  14.643  1.00  0.00     0.022 A 
ATOM      6  C   UNL     1      60.644  33.786  15.330  1.00  0.00     0.062 A 
ATOM      7  C   UNL     1      58.203  33.898  15.292  1.00  0.00     0.019 A 
ATOM      8  C   UNL     1      57.032  34.105  14.565  1.00  0.00     0.094 A 
ATOM      9  C   UNL     1      57.123  34.395  13.199  1.00  0.00     0.336 A 
ATOM     10  O   UNL     1      56.078  34.585  12.526  1.00  0.00    -0.246 OA
ATOM     11  O   UNL     1      58.312  34.473  12.607  1.00  0.00    -0.423 OA
ENDROOT
BRANCH   1  12
ATOM     12  O   UNL     1      63.104  33.690  15.293  1.00  0.00    -0.493 OA
ATOM     13  C   UNL     1      63.250  33.214  16.628  1.00  0.00     0.278 C 
ENDBRANCH   1  12
BRANCH   2  14
ATOM     14  O   UNL     1      63.094  34.272  12.598  1.00  0.00    -0.504 OA
ATOM     15  H   UNL     1      63.653  33.451  12.394  1.00  0.00     0.293 HD
ENDBRANCH   2  14
TORSDOF 2
ENDMDL
MODEL 5
REMARK VINA RESULT:    -4.017     15.797     17.819
REMARK INTER + INTRA:          -4.417
REMARK INTER:                  -4.352
REMARK INTRA:                  -0.065
REMARK UNBOUND:                -0.048
REMARK SMILES COc1cc2ccc(=O)oc2cc1O
REMARK SMILES IDX 3 1 13 2 12 3 11 4 5 5 4 6 6 7 7 8 8 9 9 10 10 11 2 12 1 13
REMARK SMILES IDX 14 14
REMARK H PARENT 14 15
REMARK Flexibility Score: inf
ROOT
ATOM      1  C   UNL     1      58.708  34.029  14.096  1.00  0.00     0.161 A 
ATOM      2  C   UNL     1      59.113  34.319  12.784  1.00  0.00     0.161 A 
ATOM      3  C   UNL     1      60.476  34.345  12.453  1.00  0.00     0.098 A 
ATOM      4  C   UNL     1      61.443  34.082  13.427  1.00  0.00     0.142 A 
ATOM      5  C   UNL     1      61.044  33.789  14.748  1.00  0.00     0.022 A 
ATOM      6  C   UNL     1      59.682  33.763  15.080  1.00  0.00     0.062 A 
ATOM      7  C   UNL     1      62.035  33.530  15.700  1.00  0.00     0.019 A 
ATOM      8  C   UNL     1      63.376  33.568  15.321  1.00  0.00     0.094 A 
ATOM      9  C   UNL     1      63.697  33.866  13.992  1.00  0.00     0.336 A 
ATOM     10  O   UNL     1      64.901  33.905  13.630  1.00  0.00    -0.246 OA
ATOM     11  O   UNL     1      62.734  34.108  13.106  1.00  0.00    -0.423 OA
ENDROOT
BRANCH   1  12
ATOM     12  O   UNL     1      57.334  34.013  14.382  1.00  0.00    -0.493 OA
ATOM     13  C   UNL     1      56.632  35.071  15.030  1.00  0.00     0.278 C 
ENDBRANCH   1  12
BRANCH   2  14
ATOM     14  O   UNL     1      58.151  34.581  11.810  1.00  0.00    -0.504 OA
ATOM     15  H   UNL     1      57.221  34.180  11.862  1.00  0.00     0.293 HD
ENDBRANCH   2  14
TORSDOF 2
ENDMDL
MODEL 6
REMARK VINA RESULT:    -3.993      1.971      5.407
REMARK INTER + INTRA:          -4.391
REMARK INTER:                  -4.346
REMARK INTRA:                  -0.045
REMARK UNBOUND:                -0.048
REMARK SMILES COc1cc2ccc(=O)oc2cc1O
REMARK SMILES IDX 3 1 13 2 12 3 11 4 5 5 4 6 6 7 7 8 8 9 9 10 10 11 2 12 1 13
REMARK SMILES IDX 14 14
REMARK H PARENT 14 15
REMARK Flexibility Score: inf
ROOT
ATOM      1  C   UNL     1      52.846  48.828  12.180  1.00  0.00     0.161 A 
ATOM      2  C   UNL     1      54.009  48.887  12.963  1.00  0.00     0.161 A 
ATOM      3  C   UNL     1      54.151  48.057  14.084  1.00  0.00     0.098 A 
ATOM      4  C   UNL     1      53.136  47.163  14.432  1.00  0.00     0.142 A 
ATOM      5  C   UNL     1      51.963  47.096  13.649  1.00  0.00     0.022 A 
ATOM      6  C   UNL     1      51.821  47.925  12.528  1.00  0.00     0.062 A 
ATOM      7  C   UNL     1      50.965  46.190  14.022  1.00  0.00     0.019 A 
ATOM      8  C   UNL     1      51.154  45.386  15.145  1.00  0.00     0.094 A 
ATOM      9  C   UNL     1      52.342  45.508  15.874  1.00  0.00     0.336 A 
ATOM     10  O   UNL     1      52.532  44.791  16.890  1.00  0.00    -0.246 OA
ATOM     11  O   UNL     1      53.276  46.377  15.497  1.00  0.00    -0.423 OA
ENDROOT
BRANCH   1  12
ATOM     12  O   UNL     1      52.747  49.677  11.066  1.00  0.00    -0.493 OA
ATOM     13  C   UNL     1      51.764  49.554  10.042  1.00  0.00     0.278 C 
ENDBRANCH   1  12
BRANCH   2  14
ATOM     14  O   UNL     1      55.024  49.779  12.619  1.00  0.00    -0.504 OA
ATOM     15  H   UNL     1      55.936  49.454  12.319  1.00  0.00     0.293 HD
ENDBRANCH   2  14
TORSDOF 2
ENDMDL
MODEL 7
REMARK VINA RESULT:    -3.884     12.510     14.726
REMARK INTER + INTRA:          -4.272
REMARK INTER:                  -4.207
REMARK INTRA:                  -0.065
REMARK UNBOUND:                -0.048
REMARK SMILES COc1cc2ccc(=O)oc2cc1O
REMARK SMILES IDX 3 1 13 2 12 3 11 4 5 5 4 6 6 7 7 8 8 9 9 10 10 11 2 12 1 13
REMARK SMILES IDX 14 14
REMARK H PARENT 14 15
REMARK Flexibility Score: inf
ROOT
ATOM      1  C   UNL     1      57.961  34.269  13.890  1.00  0.00     0.161 A 
ATOM      2  C   UNL     1      57.536  34.604  12.596  1.00  0.00     0.161 A 
ATOM      3  C   UNL     1      56.432  35.448  12.409  1.00  0.00     0.098 A 
ATOM      4  C   UNL     1      55.745  35.964  13.511  1.00  0.00     0.142 A 
ATOM      5  C   UNL     1      56.166  35.632  14.816  1.00  0.00     0.022 A 
ATOM      6  C   UNL     1      57.269  34.788  15.003  1.00  0.00     0.062 A 
ATOM      7  C   UNL     1      55.458  36.163  15.899  1.00  0.00     0.019 A 
ATOM      8  C   UNL     1      54.367  36.998  15.661  1.00  0.00     0.094 A 
ATOM      9  C   UNL     1      54.007  37.283  14.339  1.00  0.00     0.336 A 
ATOM     10  O   UNL     1      53.025  38.034  14.104  1.00  0.00    -0.246 OA
ATOM     11  O   UNL     1      54.698  36.765  13.328  1.00  0.00    -0.423 OA
ENDROOT
BRANCH   1  12
ATOM     12  O   UNL     1      59.071  33.421  14.029  1.00  0.00    -0.493 OA
ATOM     13  C   UNL     1      60.387  33.862  14.353  1.00  0.00     0.278 C 
ENDBRANCH   1  12
BRANCH   2  14
ATOM     14  O   UNL     1      58.220  34.092  11.494  1.00  0.00    -0.504 OA
ATOM     15  H   UNL     1      58.447  33.107  11.422  1.00  0.00     0.293 HD
ENDBRANCH   2  14
TORSDOF 2
ENDMDL
MODEL 8
REMARK VINA RESULT:    -3.857      1.963      4.953
REMARK INTER + INTRA:          -4.243
REMARK INTER:                  -4.184
REMARK INTRA:                  -0.059
REMARK UNBOUND:                -0.048
REMARK SMILES COc1cc2ccc(=O)oc2cc1O
REMARK SMILES IDX 3 1 13 2 12 3 11 4 5 5 4 6 6 7 7 8 8 9 9 10 10 11 2 12 1 13
REMARK SMILES IDX 14 14
REMARK H PARENT 14 15
REMARK Flexibility Score: inf
ROOT
ATOM      1  C   UNL     1      51.142  49.720  12.009  1.00  0.00     0.161 A 
ATOM      2  C   UNL     1      50.251  49.289  13.003  1.00  0.00     0.161 A 
ATOM      3  C   UNL     1      50.688  48.433  14.024  1.00  0.00     0.098 A 
ATOM      4  C   UNL     1      52.017  48.001  14.060  1.00  0.00     0.142 A 
ATOM      5  C   UNL     1      52.920  48.431  13.064  1.00  0.00     0.022 A 
ATOM      6  C   UNL     1      52.483  49.286  12.044  1.00  0.00     0.062 A 
ATOM      7  C   UNL     1      54.243  47.982  13.128  1.00  0.00     0.019 A 
ATOM      8  C   UNL     1      54.629  47.132  14.163  1.00  0.00     0.094 A 
ATOM      9  C   UNL     1      53.679  46.747  15.115  1.00  0.00     0.336 A 
ATOM     10  O   UNL     1      54.008  45.981  16.057  1.00  0.00    -0.246 OA
ATOM     11  O   UNL     1      52.427  47.189  15.032  1.00  0.00    -0.423 OA
ENDROOT
BRANCH   1  12
ATOM     12  O   UNL     1      50.660  50.577  11.007  1.00  0.00    -0.493 OA
ATOM     13  C   UNL     1      50.703  50.292   9.611  1.00  0.00     0.278 C 
ENDBRANCH   1  12
BRANCH   2  14
ATOM     14  O   UNL     1      48.924  49.718  12.970  1.00  0.00    -0.504 OA
ATOM     15  H   UNL     1      48.594  50.466  13.568  1.00  0.00     0.293 HD
ENDBRANCH   2  14
TORSDOF 2
ENDMDL
MODEL 9
REMARK VINA RESULT:    -3.840      2.060      3.272
REMARK INTER + INTRA:          -4.224
REMARK INTER:                  -4.164
REMARK INTRA:                  -0.060
REMARK UNBOUND:                -0.048
REMARK SMILES COc1cc2ccc(=O)oc2cc1O
REMARK SMILES IDX 3 1 13 2 12 3 11 4 5 5 4 6 6 7 7 8 8 9 9 10 10 11 2 12 1 13
REMARK SMILES IDX 14 14
REMARK H PARENT 14 15
REMARK Flexibility Score: inf
ROOT
ATOM      1  C   UNL     1      48.462  45.544  15.618  1.00  0.00     0.161 A 
ATOM      2  C   UNL     1      49.450  44.622  15.239  1.00  0.00     0.161 A 
ATOM      3  C   UNL     1      50.575  45.046  14.516  1.00  0.00     0.098 A 
ATOM      4  C   UNL     1      50.722  46.390  14.167  1.00  0.00     0.142 A 
ATOM      5  C   UNL     1      49.734  47.324  14.545  1.00  0.00     0.022 A 
ATOM      6  C   UNL     1      48.610  46.901  15.267  1.00  0.00     0.062 A 
ATOM      7  C   UNL     1      49.910  48.663  14.181  1.00  0.00     0.019 A 
ATOM      8  C   UNL     1      51.045  49.034  13.463  1.00  0.00     0.094 A 
ATOM      9  C   UNL     1      51.983  48.054  13.123  1.00  0.00     0.336 A 
ATOM     10  O   UNL     1      53.015  48.369  12.475  1.00  0.00    -0.246 OA
ATOM     11  O   UNL     1      51.792  46.787  13.482  1.00  0.00    -0.423 OA
ENDROOT
BRANCH   1  12
ATOM     12  O   UNL     1      47.354  45.075  16.340  1.00  0.00    -0.493 OA
ATOM     13  C   UNL     1      46.097  44.737  15.761  1.00  0.00     0.278 C 
ENDBRANCH   1  12
BRANCH   2  14
ATOM     14  O   UNL     1      49.306  43.279  15.586  1.00  0.00    -0.504 OA
ATOM     15  H   UNL     1      49.993  42.585  15.316  1.00  0.00     0.293 HD
ENDBRANCH   2  14
TORSDOF 2
ENDMDL
