MODEL 1
REMARK VINA RESULT:    -4.576      0.000      0.000
REMARK INTER + INTRA:         -15.130
REMARK INTER:                 -11.530
REMARK INTRA:                  -3.600
REMARK UNBOUND:                -3.600
REMARK SMILES CCCCCCCCCCCCCCCCCCCCCCCCCCCC(=O)[O-]
REMARK SMILES IDX 15 1 16 2 17 3 18 4 19 5 20 6 21 7 22 8 23 9 24 10 25 11
REMARK SMILES IDX 26 12 27 13 28 14 29 15 30 16 14 17 13 18 12 19 11 20 10 21
REMARK SMILES IDX 9 22 8 23 7 24 6 25 5 26 4 27 3 28 2 29 1 30
REMARK H PARENT
REMARK Flexibility Score: inf
ROOT
ATOM      1  C   UNL     1       7.892  60.983  55.266  1.00  0.00     0.000 C 
ENDROOT
BRANCH   1   2
ATOM      2  C   UNL     1       8.420  60.931  53.823  1.00  0.00     0.000 C 
BRANCH   2   3
ATOM      3  C   UNL     1       7.413  61.489  52.805  1.00  0.00     0.000 C 
BRANCH   3   4
ATOM      4  C   UNL     1       8.093  62.239  51.649  1.00  0.00     0.000 C 
BRANCH   4   5
ATOM      5  C   UNL     1       7.061  62.694  50.608  1.00  0.00     0.000 C 
BRANCH   5   6
ATOM      6  C   UNL     1       7.432  62.264  49.177  1.00  0.00     0.000 C 
BRANCH   6   7
ATOM      7  C   UNL     1       8.882  61.770  49.004  1.00  0.00     0.000 C 
BRANCH   7   8
ATOM      8  C   UNL     1       9.602  62.281  47.740  1.00  0.00     0.000 C 
BRANCH   8   9
ATOM      9  C   UNL     1      10.391  63.592  47.924  1.00  0.00     0.000 C 
BRANCH   9  10
ATOM     10  C   UNL     1       9.611  64.827  47.440  1.00  0.00     0.000 C 
BRANCH  10  11
ATOM     11  C   UNL     1       9.027  65.651  48.599  1.00  0.00     0.000 C 
BRANCH  11  12
ATOM     12  C   UNL     1       9.693  65.340  49.948  1.00  0.00     0.006 C 
BRANCH  12  13
ATOM     13  C   UNL     1      10.107  66.630  50.664  1.00  0.00     0.053 C 
BRANCH  13  14
ATOM     14  C   UNL     1      11.578  66.868  50.523  1.00  0.00     0.041 C 
ATOM     15  O   UNL     1      12.309  66.007  49.962  1.00  0.00    -0.550 OA
ATOM     16  O   UNL     1      12.147  68.031  51.023  1.00  0.00    -0.550 OA
ENDBRANCH  13  14
ENDBRANCH  12  13
ENDBRANCH  11  12
ENDBRANCH  10  11
ENDBRANCH   9  10
ENDBRANCH   8   9
ENDBRANCH   7   8
ENDBRANCH   6   7
ENDBRANCH   5   6
ENDBRANCH   4   5
ENDBRANCH   3   4
ENDBRANCH   2   3
ENDBRANCH   1   2
BRANCH   1  17
ATOM     17  C   UNL     1       7.892  59.591  55.906  1.00  0.00     0.000 C 
BRANCH  17  18
ATOM     18  C   UNL     1       6.766  59.465  56.943  1.00  0.00     0.000 C 
BRANCH  18  19
ATOM     19  C   UNL     1       5.618  60.462  56.708  1.00  0.00     0.000 C 
BRANCH  19  20
ATOM     20  C   UNL     1       4.844  60.873  57.974  1.00  0.00     0.000 C 
BRANCH  20  21
ATOM     21  C   UNL     1       5.226  60.039  59.207  1.00  0.00     0.000 C 
BRANCH  21  22
ATOM     22  C   UNL     1       5.812  60.928  60.311  1.00  0.00    -0.000 C 
BRANCH  22  23
ATOM     23  C   UNL     1       6.512  62.154  59.716  1.00  0.00    -0.000 C 
BRANCH  23  24
ATOM     24  C   UNL     1       8.040  61.994  59.759  1.00  0.00    -0.000 C 
BRANCH  24  25
ATOM     25  C   UNL     1       8.720  62.350  58.424  1.00  0.00    -0.000 C 
BRANCH  25  26
ATOM     26  C   UNL     1       9.428  63.717  58.392  1.00  0.00    -0.000 C 
BRANCH  26  27
ATOM     27  C   UNL     1      10.671  63.727  57.486  1.00  0.00    -0.000 C 
BRANCH  27  28
ATOM     28  C   UNL     1      10.380  64.280  56.078  1.00  0.00    -0.000 C 
BRANCH  28  29
ATOM     29  C   UNL     1      10.860  63.390  54.917  1.00  0.00    -0.003 C 
ATOM     30  C   UNL     1      11.265  64.187  53.678  1.00  0.00     0.004 C 
ENDBRANCH  28  29
ENDBRANCH  27  28
ENDBRANCH  26  27
ENDBRANCH  25  26
ENDBRANCH  24  25
ENDBRANCH  23  24
ENDBRANCH  22  23
ENDBRANCH  21  22
ENDBRANCH  20  21
ENDBRANCH  19  20
ENDBRANCH  18  19
ENDBRANCH  17  18
ENDBRANCH   1  17
TORSDOF 26
ENDMDL
MODEL 2
REMARK VINA RESULT:    -4.543      1.101      6.292
REMARK INTER + INTRA:         -15.048
REMARK INTER:                 -12.061
REMARK INTRA:                  -2.987
REMARK UNBOUND:                -3.600
REMARK SMILES CCCCCCCCCCCCCCCCCCCCCCCCCCCC(=O)[O-]
REMARK SMILES IDX 15 1 16 2 17 3 18 4 19 5 20 6 21 7 22 8 23 9 24 10 25 11
REMARK SMILES IDX 26 12 27 13 28 14 29 15 30 16 14 17 13 18 12 19 11 20 10 21
REMARK SMILES IDX 9 22 8 23 7 24 6 25 5 26 4 27 3 28 2 29 1 30
REMARK H PARENT
REMARK Flexibility Score: inf
ROOT
ATOM      1  C   UNL     1       5.750  60.524  59.437  1.00  0.00     0.000 C 
ENDROOT
BRANCH   1   2
ATOM      2  C   UNL     1       6.676  61.535  60.131  1.00  0.00     0.000 C 
BRANCH   2   3
ATOM      3  C   UNL     1       7.597  62.267  59.141  1.00  0.00     0.000 C 
BRANCH   3   4
ATOM      4  C   UNL     1       9.034  62.413  59.666  1.00  0.00     0.000 C 
BRANCH   4   5
ATOM      5  C   UNL     1       9.721  63.639  59.050  1.00  0.00     0.000 C 
BRANCH   5   6
ATOM      6  C   UNL     1      10.759  63.263  57.978  1.00  0.00     0.000 C 
BRANCH   6   7
ATOM      7  C   UNL     1      10.415  63.729  56.550  1.00  0.00     0.000 C 
BRANCH   7   8
ATOM      8  C   UNL     1      10.628  65.234  56.283  1.00  0.00     0.000 C 
BRANCH   8   9
ATOM      9  C   UNL     1      11.314  65.567  54.944  1.00  0.00     0.000 C 
BRANCH   9  10
ATOM     10  C   UNL     1      11.456  64.339  54.028  1.00  0.00     0.000 C 
BRANCH  10  11
ATOM     11  C   UNL     1      11.761  64.719  52.570  1.00  0.00     0.000 C 
BRANCH  11  12
ATOM     12  C   UNL     1      10.529  65.250  51.821  1.00  0.00     0.006 C 
BRANCH  12  13
ATOM     13  C   UNL     1      10.766  65.245  50.307  1.00  0.00     0.053 C 
BRANCH  13  14
ATOM     14  C   UNL     1      12.072  65.894  49.970  1.00  0.00     0.041 C 
ATOM     15  O   UNL     1      12.964  65.247  49.360  1.00  0.00    -0.550 OA
ATOM     16  O   UNL     1      12.311  67.210  50.344  1.00  0.00    -0.550 OA
ENDBRANCH  13  14
ENDBRANCH  12  13
ENDBRANCH  11  12
ENDBRANCH  10  11
ENDBRANCH   9  10
ENDBRANCH   8   9
ENDBRANCH   7   8
ENDBRANCH   6   7
ENDBRANCH   5   6
ENDBRANCH   4   5
ENDBRANCH   3   4
ENDBRANCH   2   3
ENDBRANCH   1   2
BRANCH   1  17
ATOM     17  C   UNL     1       5.026  61.162  58.246  1.00  0.00     0.000 C 
BRANCH  17  18
ATOM     18  C   UNL     1       5.436  60.485  56.929  1.00  0.00     0.000 C 
BRANCH  18  19
ATOM     19  C   UNL     1       6.095  59.110  57.140  1.00  0.00     0.000 C 
BRANCH  19  20
ATOM     20  C   UNL     1       7.492  58.956  56.512  1.00  0.00     0.000 C 
BRANCH  20  21
ATOM     21  C   UNL     1       8.076  60.288  56.015  1.00  0.00     0.000 C 
BRANCH  21  22
ATOM     22  C   UNL     1       8.256  60.275  54.492  1.00  0.00    -0.000 C 
BRANCH  22  23
ATOM     23  C   UNL     1       8.874  61.588  54.001  1.00  0.00    -0.000 C 
BRANCH  23  24
ATOM     24  C   UNL     1       9.055  61.577  52.474  1.00  0.00    -0.000 C 
BRANCH  24  25
ATOM     25  C   UNL     1       7.847  62.165  51.722  1.00  0.00    -0.000 C 
BRANCH  25  26
ATOM     26  C   UNL     1       8.177  62.846  50.381  1.00  0.00    -0.000 C 
BRANCH  26  27
ATOM     27  C   UNL     1       7.979  61.915  49.172  1.00  0.00    -0.000 C 
BRANCH  27  28
ATOM     28  C   UNL     1       8.448  62.546  47.847  1.00  0.00    -0.000 C 
BRANCH  28  29
ATOM     29  C   UNL     1       9.974  62.593  47.653  1.00  0.00    -0.003 C 
ATOM     30  C   UNL     1      10.427  62.013  46.313  1.00  0.00     0.004 C 
ENDBRANCH  28  29
ENDBRANCH  27  28
ENDBRANCH  26  27
ENDBRANCH  25  26
ENDBRANCH  24  25
ENDBRANCH  23  24
ENDBRANCH  22  23
ENDBRANCH  21  22
ENDBRANCH  20  21
ENDBRANCH  19  20
ENDBRANCH  18  19
ENDBRANCH  17  18
ENDBRANCH   1  17
TORSDOF 26
ENDMDL
MODEL 3
REMARK VINA RESULT:    -4.524      2.473      5.668
REMARK INTER + INTRA:         -14.999
REMARK INTER:                 -11.285
REMARK INTRA:                  -3.714
REMARK UNBOUND:                -3.600
REMARK SMILES CCCCCCCCCCCCCCCCCCCCCCCCCCCC(=O)[O-]
REMARK SMILES IDX 15 1 16 2 17 3 18 4 19 5 20 6 21 7 22 8 23 9 24 10 25 11
REMARK SMILES IDX 26 12 27 13 28 14 29 15 30 16 14 17 13 18 12 19 11 20 10 21
REMARK SMILES IDX 9 22 8 23 7 24 6 25 5 26 4 27 3 28 2 29 1 30
REMARK H PARENT
REMARK Flexibility Score: inf
ROOT
ATOM      1  C   UNL     1       5.313  62.450  58.803  1.00  0.00     0.000 C 
ENDROOT
BRANCH   1   2
ATOM      2  C   UNL     1       4.446  61.481  57.983  1.00  0.00     0.000 C 
BRANCH   2   3
ATOM      3  C   UNL     1       5.193  60.901  56.772  1.00  0.00     0.000 C 
BRANCH   3   4
ATOM      4  C   UNL     1       6.056  59.683  57.136  1.00  0.00     0.000 C 
BRANCH   4   5
ATOM      5  C   UNL     1       7.418  59.745  56.430  1.00  0.00     0.000 C 
BRANCH   5   6
ATOM      6  C   UNL     1       7.541  60.952  55.484  1.00  0.00     0.000 C 
BRANCH   6   7
ATOM      7  C   UNL     1       8.914  61.099  54.796  1.00  0.00     0.000 C 
BRANCH   7   8
ATOM      8  C   UNL     1       8.864  61.574  53.330  1.00  0.00     0.000 C 
BRANCH   8   9
ATOM      9  C   UNL     1       7.529  61.310  52.605  1.00  0.00     0.000 C 
BRANCH   9  10
ATOM     10  C   UNL     1       7.393  62.115  51.301  1.00  0.00     0.000 C 
BRANCH  10  11
ATOM     11  C   UNL     1       8.648  62.028  50.417  1.00  0.00     0.000 C 
BRANCH  11  12
ATOM     12  C   UNL     1       8.318  61.896  48.922  1.00  0.00     0.006 C 
BRANCH  12  13
ATOM     13  C   UNL     1       7.794  63.221  48.358  1.00  0.00     0.053 C 
BRANCH  13  14
ATOM     14  C   UNL     1       6.435  63.043  47.757  1.00  0.00     0.041 C 
ATOM     15  O   UNL     1       5.423  62.927  48.500  1.00  0.00    -0.550 OA
ATOM     16  O   UNL     1       6.285  62.990  46.378  1.00  0.00    -0.550 OA
ENDBRANCH  13  14
ENDBRANCH  12  13
ENDBRANCH  11  12
ENDBRANCH  10  11
ENDBRANCH   9  10
ENDBRANCH   8   9
ENDBRANCH   7   8
ENDBRANCH   6   7
ENDBRANCH   5   6
ENDBRANCH   4   5
ENDBRANCH   3   4
ENDBRANCH   2   3
ENDBRANCH   1   2
BRANCH   1  17
ATOM     17  C   UNL     1       5.868  61.767  60.059  1.00  0.00     0.000 C 
BRANCH  17  18
ATOM     18  C   UNL     1       7.402  61.859  60.099  1.00  0.00     0.000 C 
BRANCH  18  19
ATOM     19  C   UNL     1       7.990  62.632  58.905  1.00  0.00     0.000 C 
BRANCH  19  20
ATOM     20  C   UNL     1       9.417  62.219  58.503  1.00  0.00     0.000 C 
BRANCH  20  21
ATOM     21  C   UNL     1      10.335  63.421  58.231  1.00  0.00     0.000 C 
BRANCH  21  22
ATOM     22  C   UNL     1      10.209  63.892  56.777  1.00  0.00    -0.000 C 
BRANCH  22  23
ATOM     23  C   UNL     1      10.348  65.415  56.678  1.00  0.00    -0.000 C 
BRANCH  23  24
ATOM     24  C   UNL     1      10.801  65.839  55.272  1.00  0.00    -0.000 C 
BRANCH  24  25
ATOM     25  C   UNL     1      11.978  64.999  54.741  1.00  0.00    -0.000 C 
BRANCH  25  26
ATOM     26  C   UNL     1      11.728  64.297  53.395  1.00  0.00    -0.000 C 
BRANCH  26  27
ATOM     27  C   UNL     1      10.418  64.741  52.722  1.00  0.00    -0.000 C 
BRANCH  27  28
ATOM     28  C   UNL     1      10.574  64.982  51.208  1.00  0.00    -0.000 C 
BRANCH  28  29
ATOM     29  C   UNL     1      11.010  66.406  50.817  1.00  0.00    -0.003 C 
ATOM     30  C   UNL     1      12.335  66.441  50.058  1.00  0.00     0.004 C 
ENDBRANCH  28  29
ENDBRANCH  27  28
ENDBRANCH  26  27
ENDBRANCH  25  26
ENDBRANCH  24  25
ENDBRANCH  23  24
ENDBRANCH  22  23
ENDBRANCH  21  22
ENDBRANCH  20  21
ENDBRANCH  19  20
ENDBRANCH  18  19
ENDBRANCH  17  18
ENDBRANCH   1  17
TORSDOF 26
ENDMDL
MODEL 4
REMARK VINA RESULT:    -4.481      1.212      1.894
REMARK INTER + INTRA:         -14.892
REMARK INTER:                 -11.595
REMARK INTRA:                  -3.297
REMARK UNBOUND:                -3.600
REMARK SMILES CCCCCCCCCCCCCCCCCCCCCCCCCCCC(=O)[O-]
REMARK SMILES IDX 15 1 16 2 17 3 18 4 19 5 20 6 21 7 22 8 23 9 24 10 25 11
REMARK SMILES IDX 26 12 27 13 28 14 29 15 30 16 14 17 13 18 12 19 11 20 10 21
REMARK SMILES IDX 9 22 8 23 7 24 6 25 5 26 4 27 3 28 2 29 1 30
REMARK H PARENT
REMARK Flexibility Score: inf
ROOT
ATOM      1  C   UNL     1       9.015  61.126  54.605  1.00  0.00     0.000 C 
ENDROOT
BRANCH   1   2
ATOM      2  C   UNL     1       8.759  61.508  53.139  1.00  0.00     0.000 C 
BRANCH   2   3
ATOM      3  C   UNL     1       7.266  61.493  52.776  1.00  0.00     0.000 C 
BRANCH   3   4
ATOM      4  C   UNL     1       6.965  62.250  51.474  1.00  0.00     0.000 C 
BRANCH   4   5
ATOM      5  C   UNL     1       5.457  62.491  51.315  1.00  0.00     0.000 C 
BRANCH   5   6
ATOM      6  C   UNL     1       5.117  63.329  50.070  1.00  0.00     0.000 C 
BRANCH   6   7
ATOM      7  C   UNL     1       5.645  62.757  48.739  1.00  0.00     0.000 C 
BRANCH   7   8
ATOM      8  C   UNL     1       6.342  63.778  47.818  1.00  0.00     0.000 C 
BRANCH   8   9
ATOM      9  C   UNL     1       7.732  63.352  47.305  1.00  0.00     0.000 C 
BRANCH   9  10
ATOM     10  C   UNL     1       8.341  62.204  48.128  1.00  0.00     0.000 C 
BRANCH  10  11
ATOM     11  C   UNL     1       9.609  62.627  48.888  1.00  0.00     0.000 C 
BRANCH  11  12
ATOM     12  C   UNL     1       9.993  64.094  48.638  1.00  0.00     0.006 C 
BRANCH  12  13
ATOM     13  C   UNL     1       9.783  64.937  49.901  1.00  0.00     0.053 C 
BRANCH  13  14
ATOM     14  C   UNL     1      11.083  65.492  50.392  1.00  0.00     0.041 C 
ATOM     15  O   UNL     1      11.953  65.890  49.571  1.00  0.00    -0.550 OA
ATOM     16  O   UNL     1      11.342  65.557  51.754  1.00  0.00    -0.550 OA
ENDBRANCH  13  14
ENDBRANCH  12  13
ENDBRANCH  11  12
ENDBRANCH  10  11
ENDBRANCH   9  10
ENDBRANCH   8   9
ENDBRANCH   7   8
ENDBRANCH   6   7
ENDBRANCH   5   6
ENDBRANCH   4   5
ENDBRANCH   3   4
ENDBRANCH   2   3
ENDBRANCH   1   2
BRANCH   1  17
ATOM     17  C   UNL     1       7.703  61.048  55.394  1.00  0.00     0.000 C 
BRANCH  17  18
ATOM     18  C   UNL     1       7.684  59.810  56.305  1.00  0.00     0.000 C 
BRANCH  18  19
ATOM     19  C   UNL     1       6.370  59.663  57.093  1.00  0.00     0.000 C 
BRANCH  19  20
ATOM     20  C   UNL     1       5.310  60.739  56.795  1.00  0.00     0.000 C 
BRANCH  20  21
ATOM     21  C   UNL     1       4.522  61.166  58.043  1.00  0.00     0.000 C 
BRANCH  21  22
ATOM     22  C   UNL     1       5.188  60.641  59.320  1.00  0.00    -0.000 C 
BRANCH  22  23
ATOM     23  C   UNL     1       5.704  61.796  60.186  1.00  0.00    -0.000 C 
BRANCH  23  24
ATOM     24  C   UNL     1       7.233  61.737  60.332  1.00  0.00    -0.000 C 
BRANCH  24  25
ATOM     25  C   UNL     1       7.977  62.273  59.094  1.00  0.00    -0.000 C 
BRANCH  25  26
ATOM     26  C   UNL     1       9.404  62.788  59.358  1.00  0.00    -0.000 C 
BRANCH  26  27
ATOM     27  C   UNL     1      10.202  63.030  58.066  1.00  0.00    -0.000 C 
BRANCH  27  28
ATOM     28  C   UNL     1       9.778  64.317  57.333  1.00  0.00    -0.000 C 
BRANCH  28  29
ATOM     29  C   UNL     1      10.880  64.974  56.481  1.00  0.00    -0.003 C 
ATOM     30  C   UNL     1      10.892  64.482  55.034  1.00  0.00     0.004 C 
ENDBRANCH  28  29
ENDBRANCH  27  28
ENDBRANCH  26  27
ENDBRANCH  25  26
ENDBRANCH  24  25
ENDBRANCH  23  24
ENDBRANCH  22  23
ENDBRANCH  21  22
ENDBRANCH  20  21
ENDBRANCH  19  20
ENDBRANCH  18  19
ENDBRANCH  17  18
ENDBRANCH   1  17
TORSDOF 26
ENDMDL
MODEL 5
REMARK VINA RESULT:    -4.420      2.393      8.878
REMARK INTER + INTRA:         -14.738
REMARK INTER:                 -11.772
REMARK INTRA:                  -2.966
REMARK UNBOUND:                -3.600
REMARK SMILES CCCCCCCCCCCCCCCCCCCCCCCCCCCC(=O)[O-]
REMARK SMILES IDX 15 1 16 2 17 3 18 4 19 5 20 6 21 7 22 8 23 9 24 10 25 11
REMARK SMILES IDX 26 12 27 13 28 14 29 15 30 16 14 17 13 18 12 19 11 20 10 21
REMARK SMILES IDX 9 22 8 23 7 24 6 25 5 26 4 27 3 28 2 29 1 30
REMARK H PARENT
REMARK Flexibility Score: inf
ROOT
ATOM      1  C   UNL     1       6.438  62.310  51.750  1.00  0.00     0.000 C 
ENDROOT
BRANCH   1   2
ATOM      2  C   UNL     1       7.140  61.218  52.573  1.00  0.00     0.000 C 
BRANCH   2   3
ATOM      3  C   UNL     1       8.598  61.572  52.903  1.00  0.00     0.000 C 
BRANCH   3   4
ATOM      4  C   UNL     1       8.965  61.272  54.365  1.00  0.00     0.000 C 
BRANCH   4   5
ATOM      5  C   UNL     1       7.745  60.754  55.141  1.00  0.00     0.000 C 
BRANCH   5   6
ATOM      6  C   UNL     1       7.903  59.290  55.586  1.00  0.00     0.000 C 
BRANCH   6   7
ATOM      7  C   UNL     1       7.022  58.877  56.782  1.00  0.00     0.000 C 
BRANCH   7   8
ATOM      8  C   UNL     1       6.053  59.966  57.288  1.00  0.00     0.000 C 
BRANCH   8   9
ATOM      9  C   UNL     1       5.515  59.747  58.715  1.00  0.00     0.000 C 
BRANCH   9  10
ATOM     10  C   UNL     1       6.128  60.721  59.736  1.00  0.00     0.000 C 
BRANCH  10  11
ATOM     11  C   UNL     1       6.615  62.028  59.089  1.00  0.00     0.000 C 
BRANCH  11  12
ATOM     12  C   UNL     1       8.091  62.331  59.394  1.00  0.00     0.006 C 
BRANCH  12  13
ATOM     13  C   UNL     1       8.931  62.297  58.113  1.00  0.00     0.053 C 
BRANCH  13  14
ATOM     14  C   UNL     1       9.945  63.398  58.114  1.00  0.00     0.041 C 
ATOM     15  O   UNL     1      11.170  63.132  58.242  1.00  0.00    -0.550 OA
ATOM     16  O   UNL     1       9.538  64.720  57.988  1.00  0.00    -0.550 OA
ENDBRANCH  13  14
ENDBRANCH  12  13
ENDBRANCH  11  12
ENDBRANCH  10  11
ENDBRANCH   9  10
ENDBRANCH   8   9
ENDBRANCH   7   8
ENDBRANCH   6   7
ENDBRANCH   5   6
ENDBRANCH   4   5
ENDBRANCH   3   4
ENDBRANCH   2   3
ENDBRANCH   1   2
BRANCH   1  17
ATOM     17  C   UNL     1       7.401  62.949  50.742  1.00  0.00     0.000 C 
BRANCH  17  18
ATOM     18  C   UNL     1       7.340  62.221  49.391  1.00  0.00     0.000 C 
BRANCH  18  19
ATOM     19  C   UNL     1       8.724  62.043  48.741  1.00  0.00     0.000 C 
BRANCH  19  20
ATOM     20  C   UNL     1       8.894  62.733  47.375  1.00  0.00     0.000 C 
BRANCH  20  21
ATOM     21  C   UNL     1      10.202  63.532  47.267  1.00  0.00     0.000 C 
BRANCH  21  22
ATOM     22  C   UNL     1      10.283  64.605  48.360  1.00  0.00    -0.000 C 
BRANCH  22  23
ATOM     23  C   UNL     1      11.619  65.355  48.295  1.00  0.00    -0.000 C 
BRANCH  23  24
ATOM     24  C   UNL     1      11.425  66.854  48.575  1.00  0.00    -0.000 C 
BRANCH  24  25
ATOM     25  C   UNL     1      12.010  67.293  49.931  1.00  0.00    -0.000 C 
BRANCH  25  26
ATOM     26  C   UNL     1      11.228  66.815  51.168  1.00  0.00    -0.000 C 
BRANCH  26  27
ATOM     27  C   UNL     1      11.766  65.493  51.742  1.00  0.00    -0.000 C 
BRANCH  27  28
ATOM     28  C   UNL     1      10.707  64.715  52.547  1.00  0.00    -0.000 C 
BRANCH  28  29
ATOM     29  C   UNL     1      11.202  64.138  53.886  1.00  0.00    -0.003 C 
ATOM     30  C   UNL     1      11.395  65.204  54.964  1.00  0.00     0.004 C 
ENDBRANCH  28  29
ENDBRANCH  27  28
ENDBRANCH  26  27
ENDBRANCH  25  26
ENDBRANCH  24  25
ENDBRANCH  23  24
ENDBRANCH  22  23
ENDBRANCH  21  22
ENDBRANCH  20  21
ENDBRANCH  19  20
ENDBRANCH  18  19
ENDBRANCH  17  18
ENDBRANCH   1  17
TORSDOF 26
ENDMDL
MODEL 6
REMARK VINA RESULT:    -4.412      2.352      4.799
REMARK INTER + INTRA:         -14.719
REMARK INTER:                 -11.284
REMARK INTRA:                  -3.435
REMARK UNBOUND:                -3.600
REMARK SMILES CCCCCCCCCCCCCCCCCCCCCCCCCCCC(=O)[O-]
REMARK SMILES IDX 15 1 16 2 17 3 18 4 19 5 20 6 21 7 22 8 23 9 24 10 25 11
REMARK SMILES IDX 26 12 27 13 28 14 29 15 30 16 14 17 13 18 12 19 11 20 10 21
REMARK SMILES IDX 9 22 8 23 7 24 6 25 5 26 4 27 3 28 2 29 1 30
REMARK H PARENT
REMARK Flexibility Score: inf
ROOT
ATOM      1  C   UNL     1      11.047  65.010  55.007  1.00  0.00     0.000 C 
ENDROOT
BRANCH   1   2
ATOM      2  C   UNL     1      11.623  64.369  53.735  1.00  0.00     0.000 C 
BRANCH   2   3
ATOM      3  C   UNL     1      11.283  65.167  52.466  1.00  0.00     0.000 C 
BRANCH   3   4
ATOM      4  C   UNL     1      10.136  64.537  51.660  1.00  0.00     0.000 C 
BRANCH   4   5
ATOM      5  C   UNL     1       9.775  65.407  50.447  1.00  0.00     0.000 C 
BRANCH   5   6
ATOM      6  C   UNL     1      10.735  65.200  49.262  1.00  0.00     0.000 C 
BRANCH   6   7
ATOM      7  C   UNL     1      10.063  65.215  47.874  1.00  0.00     0.000 C 
BRANCH   7   8
ATOM      8  C   UNL     1      10.132  63.883  47.100  1.00  0.00     0.000 C 
BRANCH   8   9
ATOM      9  C   UNL     1      10.045  62.616  47.973  1.00  0.00     0.000 C 
BRANCH   9  10
ATOM     10  C   UNL     1       8.598  62.135  48.179  1.00  0.00     0.000 C 
BRANCH  10  11
ATOM     11  C   UNL     1       8.235  61.967  49.663  1.00  0.00     0.000 C 
BRANCH  11  12
ATOM     12  C   UNL     1       6.844  62.523  50.004  1.00  0.00     0.006 C 
BRANCH  12  13
ATOM     13  C   UNL     1       6.680  63.950  49.468  1.00  0.00     0.053 C 
BRANCH  13  14
ATOM     14  C   UNL     1       5.453  64.059  48.617  1.00  0.00     0.041 C 
ATOM     15  O   UNL     1       4.311  63.925  49.131  1.00  0.00    -0.550 OA
ATOM     16  O   UNL     1       5.571  64.294  47.254  1.00  0.00    -0.550 OA
ENDBRANCH  13  14
ENDBRANCH  12  13
ENDBRANCH  11  12
ENDBRANCH  10  11
ENDBRANCH   9  10
ENDBRANCH   8   9
ENDBRANCH   7   8
ENDBRANCH   6   7
ENDBRANCH   5   6
ENDBRANCH   4   5
ENDBRANCH   3   4
ENDBRANCH   2   3
ENDBRANCH   1   2
BRANCH   1  17
ATOM     17  C   UNL     1      10.478  63.946  55.954  1.00  0.00     0.000 C 
BRANCH  17  18
ATOM     18  C   UNL     1      10.376  62.585  55.249  1.00  0.00     0.000 C 
BRANCH  18  19
ATOM     19  C   UNL     1       9.094  61.814  55.611  1.00  0.00     0.000 C 
BRANCH  19  20
ATOM     20  C   UNL     1       8.471  61.010  54.456  1.00  0.00     0.000 C 
BRANCH  20  21
ATOM     21  C   UNL     1       8.084  59.579  54.862  1.00  0.00     0.000 C 
BRANCH  21  22
ATOM     22  C   UNL     1       7.979  59.450  56.387  1.00  0.00    -0.000 C 
BRANCH  22  23
ATOM     23  C   UNL     1       6.647  58.809  56.793  1.00  0.00    -0.000 C 
BRANCH  23  24
ATOM     24  C   UNL     1       5.729  59.831  57.481  1.00  0.00    -0.000 C 
BRANCH  24  25
ATOM     25  C   UNL     1       5.906  59.864  59.011  1.00  0.00    -0.000 C 
BRANCH  25  26
ATOM     26  C   UNL     1       6.403  61.204  59.584  1.00  0.00    -0.000 C 
BRANCH  26  27
ATOM     27  C   UNL     1       7.067  62.100  58.524  1.00  0.00    -0.000 C 
BRANCH  27  28
ATOM     28  C   UNL     1       8.230  62.936  59.090  1.00  0.00    -0.000 C 
BRANCH  28  29
ATOM     29  C   UNL     1       9.384  62.118  59.699  1.00  0.00    -0.003 C 
ATOM     30  C   UNL     1      10.764  62.676  59.352  1.00  0.00     0.004 C 
ENDBRANCH  28  29
ENDBRANCH  27  28
ENDBRANCH  26  27
ENDBRANCH  25  26
ENDBRANCH  24  25
ENDBRANCH  23  24
ENDBRANCH  22  23
ENDBRANCH  21  22
ENDBRANCH  20  21
ENDBRANCH  19  20
ENDBRANCH  18  19
ENDBRANCH  17  18
ENDBRANCH   1  17
TORSDOF 26
ENDMDL
MODEL 7
REMARK VINA RESULT:    -4.326      1.761      8.298
REMARK INTER + INTRA:         -14.502
REMARK INTER:                 -11.408
REMARK INTRA:                  -3.094
REMARK UNBOUND:                -3.600
REMARK SMILES CCCCCCCCCCCCCCCCCCCCCCCCCCCC(=O)[O-]
REMARK SMILES IDX 15 1 16 2 17 3 18 4 19 5 20 6 21 7 22 8 23 9 24 10 25 11
REMARK SMILES IDX 26 12 27 13 28 14 29 15 30 16 14 17 13 18 12 19 11 20 10 21
REMARK SMILES IDX 9 22 8 23 7 24 6 25 5 26 4 27 3 28 2 29 1 30
REMARK H PARENT
REMARK Flexibility Score: inf
ROOT
ATOM      1  C   UNL     1       7.616  60.817  55.593  1.00  0.00     0.000 C 
ENDROOT
BRANCH   1   2
ATOM      2  C   UNL     1       7.376  59.670  56.588  1.00  0.00     0.000 C 
BRANCH   2   3
ATOM      3  C   UNL     1       5.960  59.690  57.183  1.00  0.00     0.000 C 
BRANCH   3   4
ATOM      4  C   UNL     1       5.273  61.057  57.032  1.00  0.00     0.000 C 
BRANCH   4   5
ATOM      5  C   UNL     1       4.045  61.157  57.948  1.00  0.00     0.000 C 
BRANCH   5   6
ATOM      6  C   UNL     1       4.420  61.431  59.416  1.00  0.00     0.000 C 
BRANCH   6   7
ATOM      7  C   UNL     1       5.655  62.334  59.612  1.00  0.00     0.000 C 
BRANCH   7   8
ATOM      8  C   UNL     1       6.823  61.688  60.384  1.00  0.00     0.000 C 
BRANCH   8   9
ATOM      9  C   UNL     1       8.223  61.977  59.810  1.00  0.00     0.000 C 
BRANCH   9  10
ATOM     10  C   UNL     1       8.182  62.907  58.586  1.00  0.00     0.000 C 
BRANCH  10  11
ATOM     11  C   UNL     1       9.358  63.898  58.554  1.00  0.00     0.000 C 
BRANCH  11  12
ATOM     12  C   UNL     1      10.541  63.392  57.714  1.00  0.00     0.006 C 
BRANCH  12  13
ATOM     13  C   UNL     1      10.186  63.377  56.223  1.00  0.00     0.053 C 
BRANCH  13  14
ATOM     14  C   UNL     1      10.782  64.558  55.522  1.00  0.00     0.041 C 
ATOM     15  O   UNL     1      11.507  64.392  54.505  1.00  0.00    -0.550 OA
ATOM     16  O   UNL     1      10.552  65.840  56.001  1.00  0.00    -0.550 OA
ENDBRANCH  13  14
ENDBRANCH  12  13
ENDBRANCH  11  12
ENDBRANCH  10  11
ENDBRANCH   9  10
ENDBRANCH   8   9
ENDBRANCH   7   8
ENDBRANCH   6   7
ENDBRANCH   5   6
ENDBRANCH   4   5
ENDBRANCH   3   4
ENDBRANCH   2   3
ENDBRANCH   1   2
BRANCH   1  17
ATOM     17  C   UNL     1       8.606  60.403  54.499  1.00  0.00     0.000 C 
BRANCH  17  18
ATOM     18  C   UNL     1       8.644  61.447  53.371  1.00  0.00     0.000 C 
BRANCH  18  19
ATOM     19  C   UNL     1       7.324  61.528  52.583  1.00  0.00     0.000 C 
BRANCH  19  20
ATOM     20  C   UNL     1       7.446  62.135  51.173  1.00  0.00     0.000 C 
BRANCH  20  21
ATOM     21  C   UNL     1       8.809  61.861  50.519  1.00  0.00     0.000 C 
BRANCH  21  22
ATOM     22  C   UNL     1       8.785  62.218  49.028  1.00  0.00    -0.000 C 
BRANCH  22  23
ATOM     23  C   UNL     1       8.473  63.705  48.824  1.00  0.00    -0.000 C 
BRANCH  23  24
ATOM     24  C   UNL     1       9.757  64.549  48.860  1.00  0.00    -0.000 C 
BRANCH  24  25
ATOM     25  C   UNL     1       9.846  65.455  50.102  1.00  0.00    -0.000 C 
BRANCH  25  26
ATOM     26  C   UNL     1      11.225  65.498  50.785  1.00  0.00    -0.000 C 
BRANCH  26  27
ATOM     27  C   UNL     1      12.057  66.726  50.377  1.00  0.00    -0.000 C 
BRANCH  27  28
ATOM     28  C   UNL     1      11.257  68.041  50.445  1.00  0.00    -0.000 C 
BRANCH  28  29
ATOM     29  C   UNL     1      10.999  68.718  49.086  1.00  0.00    -0.003 C 
ATOM     30  C   UNL     1      12.101  68.448  48.062  1.00  0.00     0.004 C 
ENDBRANCH  28  29
ENDBRANCH  27  28
ENDBRANCH  26  27
ENDBRANCH  25  26
ENDBRANCH  24  25
ENDBRANCH  23  24
ENDBRANCH  22  23
ENDBRANCH  21  22
ENDBRANCH  20  21
ENDBRANCH  19  20
ENDBRANCH  18  19
ENDBRANCH  17  18
ENDBRANCH   1  17
TORSDOF 26
ENDMDL
MODEL 8
REMARK VINA RESULT:    -4.272      8.511     11.984
REMARK INTER + INTRA:         -14.366
REMARK INTER:                 -11.157
REMARK INTRA:                  -3.209
REMARK UNBOUND:                -3.600
REMARK SMILES CCCCCCCCCCCCCCCCCCCCCCCCCCCC(=O)[O-]
REMARK SMILES IDX 15 1 16 2 17 3 18 4 19 5 20 6 21 7 22 8 23 9 24 10 25 11
REMARK SMILES IDX 26 12 27 13 28 14 29 15 30 16 14 17 13 18 12 19 11 20 10 21
REMARK SMILES IDX 9 22 8 23 7 24 6 25 5 26 4 27 3 28 2 29 1 30
REMARK H PARENT
REMARK Flexibility Score: inf
ROOT
ATOM      1  C   UNL     1       0.967  59.796  44.378  1.00  0.00     0.000 C 
ENDROOT
BRANCH   1   2
ATOM      2  C   UNL     1       0.624  60.731  45.548  1.00  0.00     0.000 C 
BRANCH   2   3
ATOM      3  C   UNL     1       1.294  62.109  45.420  1.00  0.00     0.000 C 
BRANCH   3   4
ATOM      4  C   UNL     1       1.658  62.457  43.968  1.00  0.00     0.000 C 
BRANCH   4   5
ATOM      5  C   UNL     1       2.985  63.228  43.906  1.00  0.00     0.000 C 
BRANCH   5   6
ATOM      6  C   UNL     1       3.836  63.048  45.175  1.00  0.00     0.000 C 
BRANCH   6   7
ATOM      7  C   UNL     1       5.330  63.390  45.007  1.00  0.00     0.000 C 
BRANCH   7   8
ATOM      8  C   UNL     1       6.060  63.787  46.307  1.00  0.00     0.000 C 
BRANCH   8   9
ATOM      9  C   UNL     1       7.495  63.239  46.441  1.00  0.00     0.000 C 
BRANCH   9  10
ATOM     10  C   UNL     1       8.204  63.738  47.712  1.00  0.00     0.000 C 
BRANCH  10  11
ATOM     11  C   UNL     1       9.086  62.658  48.361  1.00  0.00     0.000 C 
BRANCH  11  12
ATOM     12  C   UNL     1       8.317  61.784  49.363  1.00  0.00     0.006 C 
BRANCH  12  13
ATOM     13  C   UNL     1       7.774  62.628  50.521  1.00  0.00     0.053 C 
BRANCH  13  14
ATOM     14  C   UNL     1       6.287  62.493  50.626  1.00  0.00     0.041 C 
ATOM     15  O   UNL     1       5.598  62.251  49.598  1.00  0.00    -0.550 OA
ATOM     16  O   UNL     1       5.659  62.649  51.854  1.00  0.00    -0.550 OA
ENDBRANCH  13  14
ENDBRANCH  12  13
ENDBRANCH  11  12
ENDBRANCH  10  11
ENDBRANCH   9  10
ENDBRANCH   8   9
ENDBRANCH   7   8
ENDBRANCH   6   7
ENDBRANCH   5   6
ENDBRANCH   4   5
ENDBRANCH   3   4
ENDBRANCH   2   3
ENDBRANCH   1   2
BRANCH   1  17
ATOM     17  C   UNL     1      -0.011  58.618  44.306  1.00  0.00     0.000 C 
BRANCH  17  18
ATOM     18  C   UNL     1      -1.176  58.812  45.289  1.00  0.00     0.000 C 
BRANCH  18  19
ATOM     19  C   UNL     1      -2.380  57.903  44.982  1.00  0.00     0.000 C 
BRANCH  19  20
ATOM     20  C   UNL     1      -2.769  56.936  46.115  1.00  0.00     0.000 C 
BRANCH  20  21
ATOM     21  C   UNL     1      -1.567  56.490  46.961  1.00  0.00     0.000 C 
BRANCH  21  22
ATOM     22  C   UNL     1      -1.914  56.495  48.455  1.00  0.00    -0.000 C 
BRANCH  22  23
ATOM     23  C   UNL     1      -2.972  57.558  48.770  1.00  0.00    -0.000 C 
BRANCH  23  24
ATOM     24  C   UNL     1      -2.340  58.956  48.866  1.00  0.00    -0.000 C 
BRANCH  24  25
ATOM     25  C   UNL     1      -3.370  60.093  48.732  1.00  0.00    -0.000 C 
BRANCH  25  26
ATOM     26  C   UNL     1      -3.918  60.316  47.311  1.00  0.00    -0.000 C 
BRANCH  26  27
ATOM     27  C   UNL     1      -3.394  61.610  46.664  1.00  0.00    -0.000 C 
BRANCH  27  28
ATOM     28  C   UNL     1      -3.366  61.541  45.125  1.00  0.00    -0.000 C 
BRANCH  28  29
ATOM     29  C   UNL     1      -2.533  62.639  44.439  1.00  0.00    -0.003 C 
ATOM     30  C   UNL     1      -1.970  63.666  45.420  1.00  0.00     0.004 C 
ENDBRANCH  28  29
ENDBRANCH  27  28
ENDBRANCH  26  27
ENDBRANCH  25  26
ENDBRANCH  24  25
ENDBRANCH  23  24
ENDBRANCH  22  23
ENDBRANCH  21  22
ENDBRANCH  20  21
ENDBRANCH  19  20
ENDBRANCH  18  19
ENDBRANCH  17  18
ENDBRANCH   1  17
TORSDOF 26
ENDMDL
MODEL 9
REMARK VINA RESULT:    -4.199      8.620     12.249
REMARK INTER + INTRA:         -14.180
REMARK INTER:                 -10.330
REMARK INTRA:                  -3.850
REMARK UNBOUND:                -3.600
REMARK SMILES CCCCCCCCCCCCCCCCCCCCCCCCCCCC(=O)[O-]
REMARK SMILES IDX 15 1 16 2 17 3 18 4 19 5 20 6 21 7 22 8 23 9 24 10 25 11
REMARK SMILES IDX 26 12 27 13 28 14 29 15 30 16 14 17 13 18 12 19 11 20 10 21
REMARK SMILES IDX 9 22 8 23 7 24 6 25 5 26 4 27 3 28 2 29 1 30
REMARK H PARENT
REMARK Flexibility Score: inf
ROOT
ATOM      1  C   UNL     1       0.547  61.345  45.239  1.00  0.00     0.000 C 
ENDROOT
BRANCH   1   2
ATOM      2  C   UNL     1       0.413  61.525  43.718  1.00  0.00     0.000 C 
BRANCH   2   3
ATOM      3  C   UNL     1       1.698  62.066  43.072  1.00  0.00     0.000 C 
BRANCH   3   4
ATOM      4  C   UNL     1       2.970  61.450  43.677  1.00  0.00     0.000 C 
BRANCH   4   5
ATOM      5  C   UNL     1       3.906  62.542  44.215  1.00  0.00     0.000 C 
BRANCH   5   6
ATOM      6  C   UNL     1       3.306  63.953  44.088  1.00  0.00     0.000 C 
BRANCH   6   7
ATOM      7  C   UNL     1       2.823  64.574  45.414  1.00  0.00     0.000 C 
BRANCH   7   8
ATOM      8  C   UNL     1       3.127  63.741  46.676  1.00  0.00     0.000 C 
BRANCH   8   9
ATOM      9  C   UNL     1       3.829  64.510  47.812  1.00  0.00     0.000 C 
BRANCH   9  10
ATOM     10  C   UNL     1       4.993  63.719  48.433  1.00  0.00     0.000 C 
BRANCH  10  11
ATOM     11  C   UNL     1       5.957  63.154  47.377  1.00  0.00     0.000 C 
BRANCH  11  12
ATOM     12  C   UNL     1       7.384  62.961  47.914  1.00  0.00     0.006 C 
BRANCH  12  13
ATOM     13  C   UNL     1       7.364  62.278  49.286  1.00  0.00     0.053 C 
BRANCH  13  14
ATOM     14  C   UNL     1       8.334  62.932  50.220  1.00  0.00     0.041 C 
ATOM     15  O   UNL     1       8.687  62.348  51.279  1.00  0.00    -0.550 OA
ATOM     16  O   UNL     1       8.835  64.194  49.930  1.00  0.00    -0.550 OA
ENDBRANCH  13  14
ENDBRANCH  12  13
ENDBRANCH  11  12
ENDBRANCH  10  11
ENDBRANCH   9  10
ENDBRANCH   8   9
ENDBRANCH   7   8
ENDBRANCH   6   7
ENDBRANCH   5   6
ENDBRANCH   4   5
ENDBRANCH   3   4
ENDBRANCH   2   3
ENDBRANCH   1   2
BRANCH   1  17
ATOM     17  C   UNL     1      -0.393  60.247  45.751  1.00  0.00     0.000 C 
BRANCH  17  18
ATOM     18  C   UNL     1      -0.507  59.104  44.731  1.00  0.00     0.000 C 
BRANCH  18  19
ATOM     19  C   UNL     1      -1.158  57.838  45.316  1.00  0.00     0.000 C 
BRANCH  19  20
ATOM     20  C   UNL     1      -2.687  57.761  45.157  1.00  0.00     0.000 C 
BRANCH  20  21
ATOM     21  C   UNL     1      -3.373  57.009  46.308  1.00  0.00     0.000 C 
BRANCH  21  22
ATOM     22  C   UNL     1      -2.353  56.586  47.373  1.00  0.00    -0.000 C 
BRANCH  22  23
ATOM     23  C   UNL     1      -2.686  57.212  48.732  1.00  0.00    -0.000 C 
BRANCH  23  24
ATOM     24  C   UNL     1      -2.287  58.696  48.771  1.00  0.00    -0.000 C 
BRANCH  24  25
ATOM     25  C   UNL     1      -3.499  59.643  48.834  1.00  0.00    -0.000 C 
BRANCH  25  26
ATOM     26  C   UNL     1      -3.390  60.907  47.961  1.00  0.00    -0.000 C 
BRANCH  26  27
ATOM     27  C   UNL     1      -4.009  60.726  46.565  1.00  0.00    -0.000 C 
BRANCH  27  28
ATOM     28  C   UNL     1      -4.073  62.040  45.763  1.00  0.00    -0.000 C 
BRANCH  28  29
ATOM     29  C   UNL     1      -3.285  62.035  44.441  1.00  0.00    -0.003 C 
ATOM     30  C   UNL     1      -2.757  63.416  44.053  1.00  0.00     0.004 C 
ENDBRANCH  28  29
ENDBRANCH  27  28
ENDBRANCH  26  27
ENDBRANCH  25  26
ENDBRANCH  24  25
ENDBRANCH  23  24
ENDBRANCH  22  23
ENDBRANCH  21  22
ENDBRANCH  20  21
ENDBRANCH  19  20
ENDBRANCH  18  19
ENDBRANCH  17  18
ENDBRANCH   1  17
TORSDOF 26
ENDMDL
