MODEL 1
REMARK VINA RESULT:    -7.890      0.000      0.000
REMARK INTER + INTRA:          -8.756
REMARK INTER:                  -8.582
REMARK INTRA:                  -0.174
REMARK UNBOUND:                -0.174
REMARK SMILES C[C@@H]1[C@@H](C)CC[C@@]2(C(=O)[O-])CC[C@@]3(C)C(=CC[C@H]4[C@]5(C)CC[C@H](O)C(C)(C)[C@@H]5CC[C@@]43C)[C@@H]12
REMARK SMILES IDX 7 1 6 2 11 3 33 4 5 5 12 6 15 7 2 8 3 9 13 10 16 11 1 12
REMARK SMILES IDX 4 13 14 14 31 15 17 16 18 17 30 18 32 19 19 20 29 21 28 22
REMARK SMILES IDX 21 23 20 24 25 25 22 26 23 27 26 28 27 29 8 30 9 31 10 32
REMARK SMILES IDX 24 33
REMARK H PARENT 24 34
REMARK Flexibility Score: inf
ROOT
ATOM      1  C   UNL     1     -20.578 -46.447 102.959  1.00  0.00     0.017 C 
ATOM      2  C   UNL     1     -22.099 -46.723 102.687  1.00  0.00     0.014 C 
ATOM      3  C   UNL     1     -20.462 -45.037 103.594  1.00  0.00     0.014 C 
ATOM      4  C   UNL     1     -19.963 -47.518 103.934  1.00  0.00     0.030 C 
ATOM      5  C   UNL     1     -22.496 -48.180 102.934  1.00  0.00     0.004 C 
ATOM      6  C   UNL     1     -19.012 -44.645 103.902  1.00  0.00     0.013 C 
ATOM      7  C   UNL     1     -18.578 -47.101 104.470  1.00  0.00    -0.063 C 
ATOM      8  C   UNL     1     -20.983 -47.945 105.038  1.00  0.00    -0.003 C 
ATOM      9  C   UNL     1     -22.276 -48.578 104.415  1.00  0.00    -0.011 C 
ATOM     10  C   UNL     1     -18.278 -45.631 104.880  1.00  0.00    -0.006 C 
ATOM     11  C   UNL     1     -17.641 -48.085 104.583  1.00  0.00    -0.027 C 
ATOM     12  C   UNL     1     -20.367 -48.910 106.068  1.00  0.00     0.008 C 
ATOM     13  C   UNL     1     -23.511 -48.220 105.264  1.00  0.00     0.008 C 
ATOM     14  C   UNL     1     -18.882 -45.377 106.298  1.00  0.00     0.017 C 
ATOM     15  C   UNL     1     -16.684 -45.386 104.852  1.00  0.00    -0.020 C 
ATOM     16  C   UNL     1     -16.198 -47.885 104.981  1.00  0.00     0.032 C 
ATOM     17  C   UNL     1     -15.998 -46.536 105.690  1.00  0.00     0.006 C 
ATOM     18  C   UNL     1     -16.252 -43.993 105.435  1.00  0.00     0.008 C 
ATOM     19  C   UNL     1     -16.203 -45.434 103.351  1.00  0.00     0.012 C 
ATOM     20  C   UNL     1     -14.555 -46.230 106.271  1.00  0.00    -0.025 C 
ATOM     21  C   UNL     1     -15.846 -44.023 106.913  1.00  0.00     0.005 C 
ATOM     22  C   UNL     1     -14.634 -44.954 107.229  1.00  0.00     0.003 C 
ATOM     23  C   UNL     1     -14.033 -47.488 107.043  1.00  0.00     0.010 C 
ATOM     24  C   UNL     1     -13.519 -45.952 105.143  1.00  0.00     0.012 C 
ATOM     25  C   UNL     1     -14.489 -45.244 108.783  1.00  0.00    -0.006 C 
ATOM     26  C   UNL     1     -12.873 -47.189 107.992  1.00  0.00     0.033 C 
ATOM     27  C   UNL     1     -13.186 -46.089 109.039  1.00  0.00     0.120 C 
ATOM     28  C   UNL     1     -15.750 -45.926 109.400  1.00  0.00     0.014 C 
ATOM     29  C   UNL     1     -14.309 -43.900 109.544  1.00  0.00     0.014 C 
ENDROOT
BRANCH   1  30
ATOM     30  C   UNL     1     -19.850 -46.445 101.617  1.00  0.00     0.048 C 
ATOM     31  O   UNL     1     -19.060 -47.374 101.294  1.00  0.00    -0.550 OA
ATOM     32  O   UNL     1     -20.086 -45.422 100.704  1.00  0.00    -0.550 OA
ENDBRANCH   1  30
BRANCH  27  33
ATOM     33  O   UNL     1     -13.146 -46.605 110.351  1.00  0.00    -0.393 OA
ATOM     34  H   UNL     1     -13.799 -46.099 110.904  1.00  0.00     0.210 HD
ENDBRANCH  27  33
TORSDOF 2
ENDMDL
MODEL 2
REMARK VINA RESULT:    -7.851      2.008      4.192
REMARK INTER + INTRA:          -8.714
REMARK INTER:                  -8.538
REMARK INTRA:                  -0.176
REMARK UNBOUND:                -0.174
REMARK SMILES C[C@@H]1[C@@H](C)CC[C@@]2(C(=O)[O-])CC[C@@]3(C)C(=CC[C@H]4[C@]5(C)CC[C@H](O)C(C)(C)[C@@H]5CC[C@@]43C)[C@@H]12
REMARK SMILES IDX 7 1 6 2 11 3 33 4 5 5 12 6 15 7 2 8 3 9 13 10 16 11 1 12
REMARK SMILES IDX 4 13 14 14 31 15 17 16 18 17 30 18 32 19 19 20 29 21 28 22
REMARK SMILES IDX 21 23 20 24 25 25 22 26 23 27 26 28 27 29 8 30 9 31 10 32
REMARK SMILES IDX 24 33
REMARK H PARENT 24 34
REMARK Flexibility Score: inf
ROOT
ATOM      1  C   UNL     1     -20.579 -45.471 101.300  1.00  0.00     0.017 C 
ATOM      2  C   UNL     1     -21.024 -44.727  99.992  1.00  0.00     0.014 C 
ATOM      3  C   UNL     1     -19.400 -46.409 100.931  1.00  0.00     0.014 C 
ATOM      4  C   UNL     1     -20.119 -44.456 102.412  1.00  0.00     0.030 C 
ATOM      5  C   UNL     1     -21.441 -43.276 100.241  1.00  0.00     0.004 C 
ATOM      6  C   UNL     1     -18.876 -47.201 102.134  1.00  0.00     0.013 C 
ATOM      7  C   UNL     1     -19.383 -45.150 103.575  1.00  0.00    -0.063 C 
ATOM      8  C   UNL     1     -19.359 -43.237 101.799  1.00  0.00    -0.003 C 
ATOM      9  C   UNL     1     -20.260 -42.440 100.792  1.00  0.00    -0.011 C 
ATOM     10  C   UNL     1     -18.371 -46.304 103.320  1.00  0.00    -0.006 C 
ATOM     11  C   UNL     1     -19.648 -44.691 104.832  1.00  0.00    -0.027 C 
ATOM     12  C   UNL     1     -18.804 -42.286 102.876  1.00  0.00     0.008 C 
ATOM     13  C   UNL     1     -19.408 -41.875  99.640  1.00  0.00     0.008 C 
ATOM     14  C   UNL     1     -17.015 -45.683 102.858  1.00  0.00     0.017 C 
ATOM     15  C   UNL     1     -18.206 -47.175 104.669  1.00  0.00    -0.020 C 
ATOM     16  C   UNL     1     -19.125 -45.288 106.116  1.00  0.00     0.032 C 
ATOM     17  C   UNL     1     -17.900 -46.181 105.858  1.00  0.00     0.006 C 
ATOM     18  C   UNL     1     -17.065 -48.250 104.586  1.00  0.00     0.008 C 
ATOM     19  C   UNL     1     -19.557 -47.946 104.927  1.00  0.00     0.012 C 
ATOM     20  C   UNL     1     -17.167 -46.790 107.124  1.00  0.00    -0.025 C 
ATOM     21  C   UNL     1     -15.719 -47.791 105.162  1.00  0.00     0.005 C 
ATOM     22  C   UNL     1     -15.764 -47.406 106.673  1.00  0.00     0.003 C 
ATOM     23  C   UNL     1     -16.975 -45.667 108.198  1.00  0.00     0.010 C 
ATOM     24  C   UNL     1     -18.012 -47.904 107.807  1.00  0.00     0.012 C 
ATOM     25  C   UNL     1     -14.475 -46.597 107.124  1.00  0.00    -0.006 C 
ATOM     26  C   UNL     1     -15.928 -46.004 109.258  1.00  0.00     0.033 C 
ATOM     27  C   UNL     1     -14.532 -46.344 108.677  1.00  0.00     0.120 C 
ATOM     28  C   UNL     1     -14.276 -45.268 106.330  1.00  0.00     0.014 C 
ATOM     29  C   UNL     1     -13.207 -47.455 106.856  1.00  0.00     0.014 C 
ENDROOT
BRANCH   1  30
ATOM     30  C   UNL     1     -21.752 -46.320 101.784  1.00  0.00     0.048 C 
ATOM     31  O   UNL     1     -22.421 -46.000 102.805  1.00  0.00    -0.550 OA
ATOM     32  O   UNL     1     -22.125 -47.454 101.070  1.00  0.00    -0.550 OA
ENDBRANCH   1  30
BRANCH  27  33
ATOM     33  O   UNL     1     -13.563 -45.406 109.090  1.00  0.00    -0.393 OA
ATOM     34  H   UNL     1     -14.029 -44.558 109.319  1.00  0.00     0.210 HD
ENDBRANCH  27  33
TORSDOF 2
ENDMDL
MODEL 3
REMARK VINA RESULT:    -7.709      1.783      7.954
REMARK INTER + INTRA:          -8.560
REMARK INTER:                  -8.384
REMARK INTRA:                  -0.175
REMARK UNBOUND:                -0.174
REMARK SMILES C[C@@H]1[C@@H](C)CC[C@@]2(C(=O)[O-])CC[C@@]3(C)C(=CC[C@H]4[C@]5(C)CC[C@H](O)C(C)(C)[C@@H]5CC[C@@]43C)[C@@H]12
REMARK SMILES IDX 7 1 6 2 11 3 33 4 5 5 12 6 15 7 2 8 3 9 13 10 16 11 1 12
REMARK SMILES IDX 4 13 14 14 31 15 17 16 18 17 30 18 32 19 19 20 29 21 28 22
REMARK SMILES IDX 21 23 20 24 25 25 22 26 23 27 26 28 27 29 8 30 9 31 10 32
REMARK SMILES IDX 24 33
REMARK H PARENT 24 34
REMARK Flexibility Score: inf
ROOT
ATOM      1  C   UNL     1     -14.545 -45.484 106.825  1.00  0.00     0.017 C 
ATOM      2  C   UNL     1     -13.033 -45.294 107.195  1.00  0.00     0.014 C 
ATOM      3  C   UNL     1     -15.193 -44.077 106.754  1.00  0.00     0.014 C 
ATOM      4  C   UNL     1     -14.713 -46.215 105.441  1.00  0.00     0.030 C 
ATOM      5  C   UNL     1     -12.113 -46.289 106.484  1.00  0.00     0.004 C 
ATOM      6  C   UNL     1     -16.685 -44.130 106.403  1.00  0.00     0.013 C 
ATOM      7  C   UNL     1     -16.155 -46.132 104.902  1.00  0.00    -0.063 C 
ATOM      8  C   UNL     1     -13.614 -45.775 104.422  1.00  0.00    -0.003 C 
ATOM      9  C   UNL     1     -12.173 -46.107 104.947  1.00  0.00    -0.011 C 
ATOM     10  C   UNL     1     -16.994 -44.828 105.030  1.00  0.00    -0.006 C 
ATOM     11  C   UNL     1     -16.648 -47.247 104.292  1.00  0.00    -0.027 C 
ATOM     12  C   UNL     1     -13.822 -46.393 103.027  1.00  0.00     0.008 C 
ATOM     13  C   UNL     1     -11.172 -45.030 104.486  1.00  0.00     0.008 C 
ATOM     14  C   UNL     1     -16.541 -43.833 103.916  1.00  0.00     0.017 C 
ATOM     15  C   UNL     1     -18.562 -45.191 104.912  1.00  0.00    -0.020 C 
ATOM     16  C   UNL     1     -18.061 -47.424 103.788  1.00  0.00     0.032 C 
ATOM     17  C   UNL     1     -18.764 -46.068 103.613  1.00  0.00     0.006 C 
ATOM     18  C   UNL     1     -19.494 -43.930 104.835  1.00  0.00     0.008 C 
ATOM     19  C   UNL     1     -18.980 -46.003 106.197  1.00  0.00     0.012 C 
ATOM     20  C   UNL     1     -20.218 -46.081 102.982  1.00  0.00    -0.025 C 
ATOM     21  C   UNL     1     -19.867 -43.504 103.409  1.00  0.00     0.005 C 
ATOM     22  C   UNL     1     -20.636 -44.589 102.594  1.00  0.00     0.003 C 
ATOM     23  C   UNL     1     -20.227 -47.018 101.728  1.00  0.00     0.010 C 
ATOM     24  C   UNL     1     -21.275 -46.662 103.966  1.00  0.00     0.012 C 
ATOM     25  C   UNL     1     -20.668 -44.261 101.041  1.00  0.00    -0.006 C 
ATOM     26  C   UNL     1     -21.418 -46.790 100.799  1.00  0.00     0.033 C 
ATOM     27  C   UNL     1     -21.554 -45.330 100.298  1.00  0.00     0.120 C 
ATOM     28  C   UNL     1     -19.246 -44.149 100.407  1.00  0.00     0.014 C 
ATOM     29  C   UNL     1     -21.350 -42.882 100.819  1.00  0.00     0.014 C 
ENDROOT
BRANCH   1  30
ATOM     30  C   UNL     1     -15.212 -46.277 107.947  1.00  0.00     0.048 C 
ATOM     31  O   UNL     1     -15.501 -47.498 107.811  1.00  0.00    -0.550 OA
ATOM     32  O   UNL     1     -15.475 -45.661 109.167  1.00  0.00    -0.550 OA
ENDBRANCH   1  30
BRANCH  27  33
ATOM     33  O   UNL     1     -21.402 -45.253  98.898  1.00  0.00    -0.393 OA
ATOM     34  H   UNL     1     -22.100 -44.641  98.543  1.00  0.00     0.210 HD
ENDBRANCH  27  33
TORSDOF 2
ENDMDL
MODEL 4
REMARK VINA RESULT:    -7.444      1.131      1.242
REMARK INTER + INTRA:          -8.271
REMARK INTER:                  -8.093
REMARK INTRA:                  -0.178
REMARK UNBOUND:                -0.174
REMARK SMILES C[C@@H]1[C@@H](C)CC[C@@]2(C(=O)[O-])CC[C@@]3(C)C(=CC[C@H]4[C@]5(C)CC[C@H](O)C(C)(C)[C@@H]5CC[C@@]43C)[C@@H]12
REMARK SMILES IDX 7 1 6 2 11 3 33 4 5 5 12 6 15 7 2 8 3 9 13 10 16 11 1 12
REMARK SMILES IDX 4 13 14 14 31 15 17 16 18 17 30 18 32 19 19 20 29 21 28 22
REMARK SMILES IDX 21 23 20 24 25 25 22 26 23 27 26 28 27 29 8 30 9 31 10 32
REMARK SMILES IDX 24 33
REMARK H PARENT 24 34
REMARK Flexibility Score: inf
ROOT
ATOM      1  C   UNL     1     -20.394 -45.790 103.644  1.00  0.00     0.017 C 
ATOM      2  C   UNL     1     -21.828 -46.351 103.342  1.00  0.00     0.014 C 
ATOM      3  C   UNL     1     -20.556 -44.557 104.570  1.00  0.00     0.014 C 
ATOM      4  C   UNL     1     -19.490 -46.868 104.350  1.00  0.00     0.030 C 
ATOM      5  C   UNL     1     -21.871 -47.879 103.269  1.00  0.00     0.004 C 
ATOM      6  C   UNL     1     -19.213 -43.912 104.934  1.00  0.00     0.013 C 
ATOM      7  C   UNL     1     -18.203 -46.261 104.941  1.00  0.00    -0.063 C 
ATOM      8  C   UNL     1     -20.313 -47.743 105.349  1.00  0.00    -0.003 C 
ATOM      9  C   UNL     1     -21.470 -48.515 104.623  1.00  0.00    -0.011 C 
ATOM     10  C   UNL     1     -18.213 -44.881 105.660  1.00  0.00    -0.006 C 
ATOM     11  C   UNL     1     -17.063 -47.000 104.821  1.00  0.00    -0.027 C 
ATOM     12  C   UNL     1     -19.429 -48.732 106.132  1.00  0.00     0.008 C 
ATOM     13  C   UNL     1     -22.694 -48.642 105.550  1.00  0.00     0.008 C 
ATOM     14  C   UNL     1     -18.763 -45.079 107.108  1.00  0.00     0.017 C 
ATOM     15  C   UNL     1     -16.720 -44.270 105.661  1.00  0.00    -0.020 C 
ATOM     16  C   UNL     1     -15.678 -46.556 105.230  1.00  0.00     0.032 C 
ATOM     17  C   UNL     1     -15.739 -45.377 106.215  1.00  0.00     0.006 C 
ATOM     18  C   UNL     1     -16.575 -42.969 106.528  1.00  0.00     0.008 C 
ATOM     19  C   UNL     1     -16.342 -43.888 104.179  1.00  0.00     0.012 C 
ATOM     20  C   UNL     1     -14.367 -44.872 106.826  1.00  0.00    -0.025 C 
ATOM     21  C   UNL     1     -16.075 -43.213 107.957  1.00  0.00     0.005 C 
ATOM     22  C   UNL     1     -14.666 -43.880 108.041  1.00  0.00     0.003 C 
ATOM     23  C   UNL     1     -13.525 -46.106 107.294  1.00  0.00     0.010 C 
ATOM     24  C   UNL     1     -13.497 -44.129 105.770  1.00  0.00     0.012 C 
ATOM     25  C   UNL     1     -14.357 -44.447 109.491  1.00  0.00    -0.006 C 
ATOM     26  C   UNL     1     -12.402 -45.751 108.267  1.00  0.00     0.033 C 
ATOM     27  C   UNL     1     -12.884 -44.999 109.535  1.00  0.00     0.120 C 
ATOM     28  C   UNL     1     -15.389 -45.520 109.963  1.00  0.00     0.014 C 
ATOM     29  C   UNL     1     -14.434 -43.289 110.526  1.00  0.00     0.014 C 
ENDROOT
BRANCH   1  30
ATOM     30  C   UNL     1     -19.776 -45.337 102.323  1.00  0.00     0.048 C 
ATOM     31  O   UNL     1     -18.840 -45.983 101.776  1.00  0.00    -0.550 OA
ATOM     32  O   UNL     1     -20.275 -44.209 101.678  1.00  0.00    -0.550 OA
ENDBRANCH   1  30
BRANCH  27  33
ATOM     33  O   UNL     1     -12.642 -45.755 110.700  1.00  0.00    -0.393 OA
ATOM     34  H   UNL     1     -12.018 -45.242 111.280  1.00  0.00     0.210 HD
ENDBRANCH  27  33
TORSDOF 2
ENDMDL
MODEL 5
REMARK VINA RESULT:    -7.374      1.536      7.855
REMARK INTER + INTRA:          -8.194
REMARK INTER:                  -8.027
REMARK INTRA:                  -0.168
REMARK UNBOUND:                -0.174
REMARK SMILES C[C@@H]1[C@@H](C)CC[C@@]2(C(=O)[O-])CC[C@@]3(C)C(=CC[C@H]4[C@]5(C)CC[C@H](O)C(C)(C)[C@@H]5CC[C@@]43C)[C@@H]12
REMARK SMILES IDX 7 1 6 2 11 3 33 4 5 5 12 6 15 7 2 8 3 9 13 10 16 11 1 12
REMARK SMILES IDX 4 13 14 14 31 15 17 16 18 17 30 18 32 19 19 20 29 21 28 22
REMARK SMILES IDX 21 23 20 24 25 25 22 26 23 27 26 28 27 29 8 30 9 31 10 32
REMARK SMILES IDX 24 33
REMARK H PARENT 24 34
REMARK Flexibility Score: inf
ROOT
ATOM      1  C   UNL     1     -14.519 -45.383 109.256  1.00  0.00     0.017 C 
ATOM      2  C   UNL     1     -14.006 -44.707 110.575  1.00  0.00     0.014 C 
ATOM      3  C   UNL     1     -15.680 -46.338 109.637  1.00  0.00     0.014 C 
ATOM      4  C   UNL     1     -15.031 -44.314 108.221  1.00  0.00     0.030 C 
ATOM      5  C   UNL     1     -13.598 -43.245 110.378  1.00  0.00     0.004 C 
ATOM      6  C   UNL     1     -16.266 -47.070 108.424  1.00  0.00     0.013 C 
ATOM      7  C   UNL     1     -15.828 -44.949 107.063  1.00  0.00    -0.063 C 
ATOM      8  C   UNL     1     -15.756 -43.127 108.932  1.00  0.00    -0.003 C 
ATOM      9  C   UNL     1     -14.803 -42.382 109.930  1.00  0.00    -0.011 C 
ATOM     10  C   UNL     1     -16.828 -46.114 107.311  1.00  0.00    -0.006 C 
ATOM     11  C   UNL     1     -15.625 -44.428 105.819  1.00  0.00    -0.027 C 
ATOM     12  C   UNL     1     -16.362 -42.124 107.933  1.00  0.00     0.008 C 
ATOM     13  C   UNL     1     -15.594 -41.875 111.151  1.00  0.00     0.008 C 
ATOM     14  C   UNL     1     -18.157 -45.516 107.873  1.00  0.00     0.017 C 
ATOM     15  C   UNL     1     -17.064 -46.916 105.931  1.00  0.00    -0.020 C 
ATOM     16  C   UNL     1     -16.215 -44.960 104.535  1.00  0.00     0.032 C 
ATOM     17  C   UNL     1     -17.427 -45.864 104.811  1.00  0.00     0.006 C 
ATOM     18  C   UNL     1     -18.203 -47.994 106.018  1.00  0.00     0.008 C 
ATOM     19  C   UNL     1     -15.730 -47.674 105.566  1.00  0.00     0.012 C 
ATOM     20  C   UNL     1     -18.226 -46.409 103.554  1.00  0.00    -0.025 C 
ATOM     21  C   UNL     1     -19.575 -47.506 105.535  1.00  0.00     0.005 C 
ATOM     22  C   UNL     1     -19.605 -47.046 104.044  1.00  0.00     0.003 C 
ATOM     23  C   UNL     1     -18.468 -45.234 102.548  1.00  0.00     0.010 C 
ATOM     24  C   UNL     1     -17.419 -47.488 102.774  1.00  0.00     0.012 C 
ATOM     25  C   UNL     1     -20.914 -46.215 103.701  1.00  0.00    -0.006 C 
ATOM     26  C   UNL     1     -19.569 -45.516 101.527  1.00  0.00     0.033 C 
ATOM     27  C   UNL     1     -20.935 -45.884 102.162  1.00  0.00     0.120 C 
ATOM     28  C   UNL     1     -21.069 -44.927 104.570  1.00  0.00     0.014 C 
ATOM     29  C   UNL     1     -22.169 -47.085 103.990  1.00  0.00     0.014 C 
ENDROOT
BRANCH   1  30
ATOM     30  C   UNL     1     -13.374 -46.208 108.671  1.00  0.00     0.048 C 
ATOM     31  O   UNL     1     -12.816 -45.886 107.586  1.00  0.00    -0.550 OA
ATOM     32  O   UNL     1     -12.901 -47.320 109.360  1.00  0.00    -0.550 OA
ENDBRANCH   1  30
BRANCH  27  33
ATOM     33  O   UNL     1     -21.920 -44.927 101.846  1.00  0.00    -0.393 OA
ATOM     34  H   UNL     1     -21.893 -44.213 102.537  1.00  0.00     0.210 HD
ENDBRANCH  27  33
TORSDOF 2
ENDMDL
MODEL 6
REMARK VINA RESULT:    -7.271      2.125      4.000
REMARK INTER + INTRA:          -8.083
REMARK INTER:                  -8.027
REMARK INTRA:                  -0.055
REMARK UNBOUND:                -0.174
REMARK SMILES C[C@@H]1[C@@H](C)CC[C@@]2(C(=O)[O-])CC[C@@]3(C)C(=CC[C@H]4[C@]5(C)CC[C@H](O)C(C)(C)[C@@H]5CC[C@@]43C)[C@@H]12
REMARK SMILES IDX 7 1 6 2 11 3 33 4 5 5 12 6 15 7 2 8 3 9 13 10 16 11 1 12
REMARK SMILES IDX 4 13 14 14 31 15 17 16 18 17 30 18 32 19 19 20 29 21 28 22
REMARK SMILES IDX 21 23 20 24 25 25 22 26 23 27 26 28 27 29 8 30 9 31 10 32
REMARK SMILES IDX 24 33
REMARK H PARENT 24 34
REMARK Flexibility Score: inf
ROOT
ATOM      1  C   UNL     1     -20.702 -46.685 102.946  1.00  0.00     0.017 C 
ATOM      2  C   UNL     1     -21.638 -46.982 101.723  1.00  0.00     0.014 C 
ATOM      3  C   UNL     1     -19.930 -47.989 103.277  1.00  0.00     0.014 C 
ATOM      4  C   UNL     1     -19.680 -45.532 102.624  1.00  0.00     0.030 C 
ATOM      5  C   UNL     1     -21.750 -45.802 100.755  1.00  0.00     0.004 C 
ATOM      6  C   UNL     1     -18.980 -47.827 104.468  1.00  0.00     0.013 C 
ATOM      7  C   UNL     1     -18.552 -45.435 103.671  1.00  0.00    -0.063 C 
ATOM      8  C   UNL     1     -19.186 -45.599 101.143  1.00  0.00    -0.003 C 
ATOM      9  C   UNL     1     -20.375 -45.457 100.130  1.00  0.00    -0.011 C 
ATOM     10  C   UNL     1     -17.893 -46.710 104.273  1.00  0.00    -0.006 C 
ATOM     11  C   UNL     1     -18.149 -44.181 104.026  1.00  0.00    -0.027 C 
ATOM     12  C   UNL     1     -18.103 -44.549 100.835  1.00  0.00     0.008 C 
ATOM     13  C   UNL     1     -20.117 -46.313  98.875  1.00  0.00     0.008 C 
ATOM     14  C   UNL     1     -16.863 -47.271 103.243  1.00  0.00     0.017 C 
ATOM     15  C   UNL     1     -17.196 -46.334 105.679  1.00  0.00    -0.020 C 
ATOM     16  C   UNL     1     -17.142 -43.852 105.102  1.00  0.00     0.032 C 
ATOM     17  C   UNL     1     -16.274 -45.073 105.446  1.00  0.00     0.006 C 
ATOM     18  C   UNL     1     -16.336 -47.500 106.283  1.00  0.00     0.008 C 
ATOM     19  C   UNL     1     -18.332 -46.003 106.721  1.00  0.00     0.012 C 
ATOM     20  C   UNL     1     -15.092 -44.854 106.479  1.00  0.00    -0.025 C 
ATOM     21  C   UNL     1     -14.841 -47.424 105.948  1.00  0.00     0.005 C 
ATOM     22  C   UNL     1     -14.132 -46.130 106.457  1.00  0.00     0.003 C 
ATOM     23  C   UNL     1     -14.312 -43.550 106.102  1.00  0.00     0.010 C 
ATOM     24  C   UNL     1     -15.617 -44.642 107.929  1.00  0.00     0.012 C 
ATOM     25  C   UNL     1     -12.713 -45.918 105.779  1.00  0.00    -0.006 C 
ATOM     26  C   UNL     1     -12.926 -43.458 106.738  1.00  0.00     0.033 C 
ATOM     27  C   UNL     1     -12.008 -44.665 106.421  1.00  0.00     0.120 C 
ATOM     28  C   UNL     1     -12.786 -45.805 104.224  1.00  0.00     0.014 C 
ATOM     29  C   UNL     1     -11.808 -47.146 106.081  1.00  0.00     0.014 C 
ENDROOT
BRANCH   1  30
ATOM     30  C   UNL     1     -21.583 -46.318 104.138  1.00  0.00     0.048 C 
ATOM     31  O   UNL     1     -21.375 -45.274 104.816  1.00  0.00    -0.550 OA
ATOM     32  O   UNL     1     -22.667 -47.124 104.470  1.00  0.00    -0.550 OA
ENDBRANCH   1  30
BRANCH  27  33
ATOM     33  O   UNL     1     -10.875 -44.266 105.681  1.00  0.00    -0.393 OA
ATOM     34  H   UNL     1     -10.875 -44.763 104.821  1.00  0.00     0.210 HD
ENDBRANCH  27  33
TORSDOF 2
ENDMDL
MODEL 7
REMARK VINA RESULT:    -7.261      1.827      7.379
REMARK INTER + INTRA:          -8.072
REMARK INTER:                  -7.895
REMARK INTRA:                  -0.176
REMARK UNBOUND:                -0.174
REMARK SMILES C[C@@H]1[C@@H](C)CC[C@@]2(C(=O)[O-])CC[C@@]3(C)C(=CC[C@H]4[C@]5(C)CC[C@H](O)C(C)(C)[C@@H]5CC[C@@]43C)[C@@H]12
REMARK SMILES IDX 7 1 6 2 11 3 33 4 5 5 12 6 15 7 2 8 3 9 13 10 16 11 1 12
REMARK SMILES IDX 4 13 14 14 31 15 17 16 18 17 30 18 32 19 19 20 29 21 28 22
REMARK SMILES IDX 21 23 20 24 25 25 22 26 23 27 26 28 27 29 8 30 9 31 10 32
REMARK SMILES IDX 24 33
REMARK H PARENT 24 34
REMARK Flexibility Score: inf
ROOT
ATOM      1  C   UNL     1     -15.415 -46.568 108.834  1.00  0.00     0.017 C 
ATOM      2  C   UNL     1     -15.096 -47.352 110.155  1.00  0.00     0.014 C 
ATOM      3  C   UNL     1     -14.836 -47.385 107.650  1.00  0.00     0.014 C 
ATOM      4  C   UNL     1     -16.964 -46.375 108.637  1.00  0.00     0.030 C 
ATOM      5  C   UNL     1     -16.222 -47.267 111.188  1.00  0.00     0.004 C 
ATOM      6  C   UNL     1     -15.080 -46.714 106.293  1.00  0.00     0.013 C 
ATOM      7  C   UNL     1     -17.323 -45.901 107.214  1.00  0.00    -0.063 C 
ATOM      8  C   UNL     1     -17.766 -47.625 109.125  1.00  0.00    -0.003 C 
ATOM      9  C   UNL     1     -17.526 -47.905 110.650  1.00  0.00    -0.011 C 
ATOM     10  C   UNL     1     -16.596 -46.472 105.963  1.00  0.00    -0.006 C 
ATOM     11  C   UNL     1     -18.318 -44.975 107.108  1.00  0.00    -0.027 C 
ATOM     12  C   UNL     1     -19.274 -47.504 108.841  1.00  0.00     0.008 C 
ATOM     13  C   UNL     1     -17.546 -49.421 110.926  1.00  0.00     0.008 C 
ATOM     14  C   UNL     1     -17.204 -47.870 105.629  1.00  0.00     0.017 C 
ATOM     15  C   UNL     1     -16.758 -45.436 104.736  1.00  0.00    -0.020 C 
ATOM     16  C   UNL     1     -18.757 -44.297 105.832  1.00  0.00     0.032 C 
ATOM     17  C   UNL     1     -18.290 -45.081 104.595  1.00  0.00     0.006 C 
ATOM     18  C   UNL     1     -16.228 -45.996 103.368  1.00  0.00     0.008 C 
ATOM     19  C   UNL     1     -15.919 -44.143 105.067  1.00  0.00     0.012 C 
ATOM     20  C   UNL     1     -18.772 -44.555 103.179  1.00  0.00    -0.025 C 
ATOM     21  C   UNL     1     -17.307 -46.634 102.484  1.00  0.00     0.005 C 
ATOM     22  C   UNL     1     -18.458 -45.664 102.073  1.00  0.00     0.003 C 
ATOM     23  C   UNL     1     -20.303 -44.234 103.242  1.00  0.00     0.010 C 
ATOM     24  C   UNL     1     -18.066 -43.228 102.779  1.00  0.00     0.012 C 
ATOM     25  C   UNL     1     -19.716 -46.438 101.491  1.00  0.00    -0.006 C 
ATOM     26  C   UNL     1     -20.967 -44.134 101.870  1.00  0.00     0.033 C 
ATOM     27  C   UNL     1     -20.786 -45.397 100.991  1.00  0.00     0.120 C 
ATOM     28  C   UNL     1     -20.330 -47.457 102.501  1.00  0.00     0.014 C 
ATOM     29  C   UNL     1     -19.282 -47.267 100.249  1.00  0.00     0.014 C 
ENDROOT
BRANCH   1  30
ATOM     30  C   UNL     1     -14.699 -45.220 108.899  1.00  0.00     0.048 C 
ATOM     31  O   UNL     1     -15.333 -44.144 109.077  1.00  0.00    -0.550 OA
ATOM     32  O   UNL     1     -13.312 -45.169 108.801  1.00  0.00    -0.550 OA
ENDBRANCH   1  30
BRANCH  27  33
ATOM     33  O   UNL     1     -22.025 -46.012 100.717  1.00  0.00    -0.393 OA
ATOM     34  H   UNL     1     -22.459 -46.236 101.583  1.00  0.00     0.210 HD
ENDBRANCH  27  33
TORSDOF 2
ENDMDL
MODEL 8
REMARK VINA RESULT:    -7.097      5.586      9.301
REMARK INTER + INTRA:          -7.893
REMARK INTER:                  -7.720
REMARK INTRA:                  -0.173
REMARK UNBOUND:                -0.174
REMARK SMILES C[C@@H]1[C@@H](C)CC[C@@]2(C(=O)[O-])CC[C@@]3(C)C(=CC[C@H]4[C@]5(C)CC[C@H](O)C(C)(C)[C@@H]5CC[C@@]43C)[C@@H]12
REMARK SMILES IDX 7 1 6 2 11 3 33 4 5 5 12 6 15 7 2 8 3 9 13 10 16 11 1 12
REMARK SMILES IDX 4 13 14 14 31 15 17 16 18 17 30 18 32 19 19 20 29 21 28 22
REMARK SMILES IDX 21 23 20 24 25 25 22 26 23 27 26 28 27 29 8 30 9 31 10 32
REMARK SMILES IDX 24 33
REMARK H PARENT 24 34
REMARK Flexibility Score: inf
ROOT
ATOM      1  C   UNL     1     -13.774 -44.457 110.728  1.00  0.00     0.017 C 
ATOM      2  C   UNL     1     -14.186 -43.190 109.899  1.00  0.00     0.014 C 
ATOM      3  C   UNL     1     -14.686 -44.517 111.981  1.00  0.00     0.014 C 
ATOM      4  C   UNL     1     -13.942 -45.777 109.886  1.00  0.00     0.030 C 
ATOM      5  C   UNL     1     -14.116 -43.415 108.387  1.00  0.00     0.004 C 
ATOM      6  C   UNL     1     -14.374 -45.718 112.881  1.00  0.00     0.013 C 
ATOM      7  C   UNL     1     -13.856 -47.046 110.758  1.00  0.00    -0.063 C 
ATOM      8  C   UNL     1     -15.198 -45.711 108.959  1.00  0.00    -0.003 C 
ATOM      9  C   UNL     1     -15.102 -44.523 107.939  1.00  0.00    -0.011 C 
ATOM     10  C   UNL     1     -14.516 -47.109 112.165  1.00  0.00    -0.006 C 
ATOM     11  C   UNL     1     -13.192 -48.112 110.226  1.00  0.00    -0.027 C 
ATOM     12  C   UNL     1     -15.445 -47.032 108.208  1.00  0.00     0.008 C 
ATOM     13  C   UNL     1     -16.499 -43.933 107.669  1.00  0.00     0.008 C 
ATOM     14  C   UNL     1     -16.047 -47.359 111.986  1.00  0.00     0.017 C 
ATOM     15  C   UNL     1     -13.812 -48.275 113.030  1.00  0.00    -0.020 C 
ATOM     16  C   UNL     1     -12.896 -49.410 110.940  1.00  0.00     0.032 C 
ATOM     17  C   UNL     1     -13.810 -49.594 112.162  1.00  0.00     0.006 C 
ATOM     18  C   UNL     1     -14.526 -48.558 114.400  1.00  0.00     0.008 C 
ATOM     19  C   UNL     1     -12.336 -47.826 113.357  1.00  0.00     0.012 C 
ATOM     20  C   UNL     1     -13.698 -50.965 112.950  1.00  0.00    -0.025 C 
ATOM     21  C   UNL     1     -15.537 -49.710 114.361  1.00  0.00     0.005 C 
ATOM     22  C   UNL     1     -14.925 -51.090 113.965  1.00  0.00     0.003 C 
ATOM     23  C   UNL     1     -13.685 -52.149 111.926  1.00  0.00     0.010 C 
ATOM     24  C   UNL     1     -12.368 -51.070 113.751  1.00  0.00     0.012 C 
ATOM     25  C   UNL     1     -16.040 -52.151 113.576  1.00  0.00    -0.006 C 
ATOM     26  C   UNL     1     -14.008 -53.505 112.550  1.00  0.00     0.033 C 
ATOM     27  C   UNL     1     -15.363 -53.545 113.301  1.00  0.00     0.120 C 
ATOM     28  C   UNL     1     -16.930 -51.695 112.377  1.00  0.00     0.014 C 
ATOM     29  C   UNL     1     -17.005 -52.350 114.779  1.00  0.00     0.014 C 
ENDROOT
BRANCH   1  30
ATOM     30  C   UNL     1     -12.326 -44.276 111.180  1.00  0.00     0.048 C 
ATOM     31  O   UNL     1     -11.379 -44.895 110.622  1.00  0.00    -0.550 OA
ATOM     32  O   UNL     1     -12.029 -43.383 112.204  1.00  0.00    -0.550 OA
ENDBRANCH   1  30
BRANCH  27  33
ATOM     33  O   UNL     1     -16.258 -54.450 112.693  1.00  0.00    -0.393 OA
ATOM     34  H   UNL     1     -16.080 -54.455 111.715  1.00  0.00     0.210 HD
ENDBRANCH  27  33
TORSDOF 2
ENDMDL
