MODEL 1
REMARK VINA RESULT:    -4.878      0.000      0.000
REMARK INTER + INTRA:          -5.356
REMARK INTER:                  -5.306
REMARK INTRA:                  -0.051
REMARK UNBOUND:                -0.051
REMARK SMILES COc1cc2ccc(=O)oc2cc1O
REMARK SMILES IDX 3 1 13 2 12 3 11 4 5 5 4 6 6 7 7 8 8 9 9 10 10 11 2 12 1 13
REMARK SMILES IDX 14 14
REMARK H PARENT 14 15
REMARK Flexibility Score: inf
ROOT
ATOM      1  C   UNL     1     -25.528  28.149 -19.262  1.00  0.00     0.161 A 
ATOM      2  C   UNL     1     -25.017  27.538 -20.417  1.00  0.00     0.161 A 
ATOM      3  C   UNL     1     -25.884  27.084 -21.421  1.00  0.00     0.098 A 
ATOM      4  C   UNL     1     -27.266  27.236 -21.280  1.00  0.00     0.142 A 
ATOM      5  C   UNL     1     -27.788  27.850 -20.123  1.00  0.00     0.022 A 
ATOM      6  C   UNL     1     -26.921  28.304 -19.118  1.00  0.00     0.062 A 
ATOM      7  C   UNL     1     -29.175  27.989 -20.010  1.00  0.00     0.019 A 
ATOM      8  C   UNL     1     -29.995  27.521 -21.036  1.00  0.00     0.094 A 
ATOM      9  C   UNL     1     -29.406  26.923 -22.156  1.00  0.00     0.336 A 
ATOM     10  O   UNL     1     -30.129  26.496 -23.093  1.00  0.00    -0.246 OA
ATOM     11  O   UNL     1     -28.084  26.804 -22.237  1.00  0.00    -0.423 OA
ENDROOT
BRANCH   1  12
ATOM     12  O   UNL     1     -24.622  28.587 -18.283  1.00  0.00    -0.493 OA
ATOM     13  C   UNL     1     -24.831  28.465 -16.880  1.00  0.00     0.278 C 
ENDBRANCH   1  12
BRANCH   2  14
ATOM     14  O   UNL     1     -23.638  27.383 -20.560  1.00  0.00    -0.504 OA
ATOM     15  H   UNL     1     -22.983  27.927 -20.009  1.00  0.00     0.293 HD
ENDBRANCH   2  14
TORSDOF 2
ENDMDL
MODEL 2
REMARK VINA RESULT:    -4.875      6.844      8.513
REMARK INTER + INTRA:          -5.353
REMARK INTER:                  -5.305
REMARK INTRA:                  -0.048
REMARK UNBOUND:                -0.051
REMARK SMILES COc1cc2ccc(=O)oc2cc1O
REMARK SMILES IDX 3 1 13 2 12 3 11 4 5 5 4 6 6 7 7 8 8 9 9 10 10 11 2 12 1 13
REMARK SMILES IDX 14 14
REMARK H PARENT 14 15
REMARK Flexibility Score: inf
ROOT
ATOM      1  C   UNL     1     -17.682  29.313 -20.710  1.00  0.00     0.161 A 
ATOM      2  C   UNL     1     -17.689  30.621 -20.199  1.00  0.00     0.161 A 
ATOM      3  C   UNL     1     -18.771  31.475 -20.455  1.00  0.00     0.098 A 
ATOM      4  C   UNL     1     -19.852  31.032 -21.221  1.00  0.00     0.142 A 
ATOM      5  C   UNL     1     -19.853  29.720 -21.738  1.00  0.00     0.022 A 
ATOM      6  C   UNL     1     -18.772  28.865 -21.482  1.00  0.00     0.062 A 
ATOM      7  C   UNL     1     -20.950  29.304 -22.500  1.00  0.00     0.019 A 
ATOM      8  C   UNL     1     -22.002  30.192 -22.726  1.00  0.00     0.094 A 
ATOM      9  C   UNL     1     -21.932  31.479 -22.182  1.00  0.00     0.336 A 
ATOM     10  O   UNL     1     -22.871  32.294 -22.374  1.00  0.00    -0.246 OA
ATOM     11  O   UNL     1     -20.877  31.848 -21.460  1.00  0.00    -0.423 OA
ENDROOT
BRANCH   1  12
ATOM     12  O   UNL     1     -16.578  28.494 -20.429  1.00  0.00    -0.493 OA
ATOM     13  C   UNL     1     -16.642  27.081 -20.268  1.00  0.00     0.278 C 
ENDBRANCH   1  12
BRANCH   2  14
ATOM     14  O   UNL     1     -16.611  31.066 -19.435  1.00  0.00    -0.504 OA
ATOM     15  H   UNL     1     -16.525  30.833 -18.452  1.00  0.00     0.293 HD
ENDBRANCH   2  14
TORSDOF 2
ENDMDL
MODEL 3
REMARK VINA RESULT:    -4.825      1.126      4.855
REMARK INTER + INTRA:          -5.299
REMARK INTER:                  -5.234
REMARK INTRA:                  -0.065
REMARK UNBOUND:                -0.051
REMARK SMILES COc1cc2ccc(=O)oc2cc1O
REMARK SMILES IDX 3 1 13 2 12 3 11 4 5 5 4 6 6 7 7 8 8 9 9 10 10 11 2 12 1 13
REMARK SMILES IDX 14 14
REMARK H PARENT 14 15
REMARK Flexibility Score: inf
ROOT
ATOM      1  C   UNL     1     -28.149  27.095 -21.148  1.00  0.00     0.161 A 
ATOM      2  C   UNL     1     -26.837  26.892 -21.604  1.00  0.00     0.161 A 
ATOM      3  C   UNL     1     -25.745  27.315 -20.832  1.00  0.00     0.098 A 
ATOM      4  C   UNL     1     -25.954  27.943 -19.602  1.00  0.00     0.142 A 
ATOM      5  C   UNL     1     -27.269  28.151 -19.136  1.00  0.00     0.022 A 
ATOM      6  C   UNL     1     -28.361  27.728 -19.907  1.00  0.00     0.062 A 
ATOM      7  C   UNL     1     -27.446  28.782 -17.900  1.00  0.00     0.019 A 
ATOM      8  C   UNL     1     -26.328  29.185 -17.170  1.00  0.00     0.094 A 
ATOM      9  C   UNL     1     -25.054  28.945 -17.696  1.00  0.00     0.336 A 
ATOM     10  O   UNL     1     -24.032  29.299 -17.052  1.00  0.00    -0.246 OA
ATOM     11  O   UNL     1     -24.914  28.342 -18.874  1.00  0.00    -0.423 OA
ENDROOT
BRANCH   1  12
ATOM     12  O   UNL     1     -29.211  26.656 -21.954  1.00  0.00    -0.493 OA
ATOM     13  C   UNL     1     -29.981  27.501 -22.803  1.00  0.00     0.278 C 
ENDBRANCH   1  12
BRANCH   2  14
ATOM     14  O   UNL     1     -26.626  26.266 -22.832  1.00  0.00    -0.504 OA
ATOM     15  H   UNL     1     -26.022  25.456 -22.918  1.00  0.00     0.293 HD
ENDBRANCH   2  14
TORSDOF 2
ENDMDL
MODEL 4
REMARK VINA RESULT:    -4.794     13.681     14.960
REMARK INTER + INTRA:          -5.265
REMARK INTER:                  -5.822
REMARK INTRA:                   0.557
REMARK UNBOUND:                -0.051
REMARK SMILES COc1cc2ccc(=O)oc2cc1O
REMARK SMILES IDX 3 1 13 2 12 3 11 4 5 5 4 6 6 7 7 8 8 9 9 10 10 11 2 12 1 13
REMARK SMILES IDX 14 14
REMARK H PARENT 14 15
REMARK Flexibility Score: inf
ROOT
ATOM      1  C   UNL     1     -11.855  27.101 -19.023  1.00  0.00     0.161 A 
ATOM      2  C   UNL     1     -13.158  26.579 -19.039  1.00  0.00     0.161 A 
ATOM      3  C   UNL     1     -13.689  26.034 -20.217  1.00  0.00     0.098 A 
ATOM      4  C   UNL     1     -12.925  26.006 -21.386  1.00  0.00     0.142 A 
ATOM      5  C   UNL     1     -11.616  26.529 -21.380  1.00  0.00     0.022 A 
ATOM      6  C   UNL     1     -11.084  27.074 -20.202  1.00  0.00     0.062 A 
ATOM      7  C   UNL     1     -10.875  26.487 -22.565  1.00  0.00     0.019 A 
ATOM      8  C   UNL     1     -11.448  25.935 -23.711  1.00  0.00     0.094 A 
ATOM      9  C   UNL     1     -12.753  25.435 -23.642  1.00  0.00     0.336 A 
ATOM     10  O   UNL     1     -13.287  24.932 -24.665  1.00  0.00    -0.246 OA
ATOM     11  O   UNL     1     -13.435  25.487 -22.501  1.00  0.00    -0.423 OA
ENDROOT
BRANCH   1  12
ATOM     12  O   UNL     1     -11.366  27.637 -17.822  1.00  0.00    -0.493 OA
ATOM     13  C   UNL     1     -12.115  28.478 -16.950  1.00  0.00     0.278 C 
ENDBRANCH   1  12
BRANCH   2  14
ATOM     14  O   UNL     1     -13.923  26.606 -17.873  1.00  0.00    -0.504 OA
ATOM     15  H   UNL     1     -14.193  27.480 -17.435  1.00  0.00     0.293 HD
ENDBRANCH   2  14
TORSDOF 2
ENDMDL
MODEL 5
REMARK VINA RESULT:    -4.790     10.304     11.467
REMARK INTER + INTRA:          -5.261
REMARK INTER:                  -5.212
REMARK INTRA:                  -0.049
REMARK UNBOUND:                -0.051
REMARK SMILES COc1cc2ccc(=O)oc2cc1O
REMARK SMILES IDX 3 1 13 2 12 3 11 4 5 5 4 6 6 7 7 8 8 9 9 10 10 11 2 12 1 13
REMARK SMILES IDX 14 14
REMARK H PARENT 14 15
REMARK Flexibility Score: inf
ROOT
ATOM      1  C   UNL     1     -18.994  34.616 -14.613  1.00  0.00     0.161 A 
ATOM      2  C   UNL     1     -18.240  33.492 -14.241  1.00  0.00     0.161 A 
ATOM      3  C   UNL     1     -18.855  32.405 -13.604  1.00  0.00     0.098 A 
ATOM      4  C   UNL     1     -20.225  32.431 -13.334  1.00  0.00     0.142 A 
ATOM      5  C   UNL     1     -20.991  33.555 -13.704  1.00  0.00     0.022 A 
ATOM      6  C   UNL     1     -20.377  34.643 -14.341  1.00  0.00     0.062 A 
ATOM      7  C   UNL     1     -22.361  33.552 -13.421  1.00  0.00     0.019 A 
ATOM      8  C   UNL     1     -22.926  32.446 -12.786  1.00  0.00     0.094 A 
ATOM      9  C   UNL     1     -22.104  31.366 -12.448  1.00  0.00     0.336 A 
ATOM     10  O   UNL     1     -22.595  30.358 -11.875  1.00  0.00    -0.246 OA
ATOM     11  O   UNL     1     -20.804  31.395 -12.729  1.00  0.00    -0.423 OA
ENDROOT
BRANCH   1  12
ATOM     12  O   UNL     1     -18.336  35.680 -15.247  1.00  0.00    -0.493 OA
ATOM     13  C   UNL     1     -18.919  36.506 -16.251  1.00  0.00     0.278 C 
ENDBRANCH   1  12
BRANCH   2  14
ATOM     14  O   UNL     1     -16.872  33.464 -14.508  1.00  0.00    -0.504 OA
ATOM     15  H   UNL     1     -16.516  33.472 -15.458  1.00  0.00     0.293 HD
ENDBRANCH   2  14
TORSDOF 2
ENDMDL
MODEL 6
REMARK VINA RESULT:    -4.754      2.332      4.839
REMARK INTER + INTRA:          -5.222
REMARK INTER:                  -5.173
REMARK INTRA:                  -0.049
REMARK UNBOUND:                -0.051
REMARK SMILES COc1cc2ccc(=O)oc2cc1O
REMARK SMILES IDX 3 1 13 2 12 3 11 4 5 5 4 6 6 7 7 8 8 9 9 10 10 11 2 12 1 13
REMARK SMILES IDX 14 14
REMARK H PARENT 14 15
REMARK Flexibility Score: inf
ROOT
ATOM      1  C   UNL     1     -29.048  27.032 -21.939  1.00  0.00     0.161 A 
ATOM      2  C   UNL     1     -27.799  27.001 -21.299  1.00  0.00     0.161 A 
ATOM      3  C   UNL     1     -27.664  27.467 -19.983  1.00  0.00     0.098 A 
ATOM      4  C   UNL     1     -28.774  27.966 -19.296  1.00  0.00     0.142 A 
ATOM      5  C   UNL     1     -30.033  28.001 -19.931  1.00  0.00     0.022 A 
ATOM      6  C   UNL     1     -30.168  27.535 -21.247  1.00  0.00     0.062 A 
ATOM      7  C   UNL     1     -31.125  28.505 -19.218  1.00  0.00     0.019 A 
ATOM      8  C   UNL     1     -30.940  28.957 -17.911  1.00  0.00     0.094 A 
ATOM      9  C   UNL     1     -29.661  28.892 -17.346  1.00  0.00     0.336 A 
ATOM     10  O   UNL     1     -29.474  29.293 -16.169  1.00  0.00    -0.246 OA
ATOM     11  O   UNL     1     -28.639  28.407 -18.047  1.00  0.00    -0.423 OA
ENDROOT
BRANCH   1  12
ATOM     12  O   UNL     1     -29.135  26.557 -23.256  1.00  0.00    -0.493 OA
ATOM     13  C   UNL     1     -30.001  27.093 -24.251  1.00  0.00     0.278 C 
ENDBRANCH   1  12
BRANCH   2  14
ATOM     14  O   UNL     1     -26.690  26.504 -21.983  1.00  0.00    -0.504 OA
ATOM     15  H   UNL     1     -25.913  26.074 -21.493  1.00  0.00     0.293 HD
ENDBRANCH   2  14
TORSDOF 2
ENDMDL
MODEL 7
REMARK VINA RESULT:    -4.727      1.265      5.406
REMARK INTER + INTRA:          -5.192
REMARK INTER:                  -5.142
REMARK INTRA:                  -0.050
REMARK UNBOUND:                -0.051
REMARK SMILES COc1cc2ccc(=O)oc2cc1O
REMARK SMILES IDX 3 1 13 2 12 3 11 4 5 5 4 6 6 7 7 8 8 9 9 10 10 11 2 12 1 13
REMARK SMILES IDX 14 14
REMARK H PARENT 14 15
REMARK Flexibility Score: inf
ROOT
ATOM      1  C   UNL     1     -28.925  27.007 -21.650  1.00  0.00     0.161 A 
ATOM      2  C   UNL     1     -29.465  27.603 -20.499  1.00  0.00     0.161 A 
ATOM      3  C   UNL     1     -28.621  28.103 -19.497  1.00  0.00     0.098 A 
ATOM      4  C   UNL     1     -27.234  28.012 -19.635  1.00  0.00     0.142 A 
ATOM      5  C   UNL     1     -26.682  27.415 -20.788  1.00  0.00     0.022 A 
ATOM      6  C   UNL     1     -27.526  26.915 -21.791  1.00  0.00     0.062 A 
ATOM      7  C   UNL     1     -25.290  27.339 -20.899  1.00  0.00     0.019 A 
ATOM      8  C   UNL     1     -24.493  27.852 -19.874  1.00  0.00     0.094 A 
ATOM      9  C   UNL     1     -25.111  28.430 -18.760  1.00  0.00     0.336 A 
ATOM     10  O   UNL     1     -24.409  28.898 -17.826  1.00  0.00    -0.246 OA
ATOM     11  O   UNL     1     -26.438  28.489 -18.681  1.00  0.00    -0.423 OA
ENDROOT
BRANCH   1  12
ATOM     12  O   UNL     1     -29.808  26.520 -22.625  1.00  0.00    -0.493 OA
ATOM     13  C   UNL     1     -29.574  26.585 -24.029  1.00  0.00     0.278 C 
ENDBRANCH   1  12
BRANCH   2  14
ATOM     14  O   UNL     1     -30.849  27.693 -20.358  1.00  0.00    -0.504 OA
ATOM     15  H   UNL     1     -31.323  27.339 -19.535  1.00  0.00     0.293 HD
ENDBRANCH   2  14
TORSDOF 2
ENDMDL
MODEL 8
REMARK VINA RESULT:    -4.648      9.718     11.865
REMARK INTER + INTRA:          -5.106
REMARK INTER:                  -5.045
REMARK INTRA:                  -0.060
REMARK UNBOUND:                -0.051
REMARK SMILES COc1cc2ccc(=O)oc2cc1O
REMARK SMILES IDX 3 1 13 2 12 3 11 4 5 5 4 6 6 7 7 8 8 9 9 10 10 11 2 12 1 13
REMARK SMILES IDX 14 14
REMARK H PARENT 14 15
REMARK Flexibility Score: inf
ROOT
ATOM      1  C   UNL     1     -23.352  32.447 -13.023  1.00  0.00     0.161 A 
ATOM      2  C   UNL     1     -23.005  31.321 -12.260  1.00  0.00     0.161 A 
ATOM      3  C   UNL     1     -21.672  31.102 -11.885  1.00  0.00     0.098 A 
ATOM      4  C   UNL     1     -20.676  32.004 -12.268  1.00  0.00     0.142 A 
ATOM      5  C   UNL     1     -21.015  33.138 -13.034  1.00  0.00     0.022 A 
ATOM      6  C   UNL     1     -22.348  33.358 -13.409  1.00  0.00     0.062 A 
ATOM      7  C   UNL     1     -19.997  34.024 -13.402  1.00  0.00     0.019 A 
ATOM      8  C   UNL     1     -18.685  33.762 -13.004  1.00  0.00     0.094 A 
ATOM      9  C   UNL     1     -18.424  32.616 -12.244  1.00  0.00     0.336 A 
ATOM     10  O   UNL     1     -17.248  32.363 -11.875  1.00  0.00    -0.246 OA
ATOM     11  O   UNL     1     -19.412  31.791 -11.908  1.00  0.00    -0.423 OA
ENDROOT
BRANCH   1  12
ATOM     12  O   UNL     1     -24.698  32.624 -13.376  1.00  0.00    -0.493 OA
ATOM     13  C   UNL     1     -25.493  33.740 -12.987  1.00  0.00     0.278 C 
ENDBRANCH   1  12
BRANCH   2  14
ATOM     14  O   UNL     1     -23.997  30.418 -11.878  1.00  0.00    -0.504 OA
ATOM     15  H   UNL     1     -23.890  29.420 -12.020  1.00  0.00     0.293 HD
ENDBRANCH   2  14
TORSDOF 2
ENDMDL
MODEL 9
REMARK VINA RESULT:    -4.638     13.016     14.391
REMARK INTER + INTRA:          -5.095
REMARK INTER:                  -5.048
REMARK INTRA:                  -0.047
REMARK UNBOUND:                -0.051
REMARK SMILES COc1cc2ccc(=O)oc2cc1O
REMARK SMILES IDX 3 1 13 2 12 3 11 4 5 5 4 6 6 7 7 8 8 9 9 10 10 11 2 12 1 13
REMARK SMILES IDX 14 14
REMARK H PARENT 14 15
REMARK Flexibility Score: inf
ROOT
ATOM      1  C   UNL     1     -17.094  21.786 -13.146  1.00  0.00     0.161 A 
ATOM      2  C   UNL     1     -15.736  21.507 -12.928  1.00  0.00     0.161 A 
ATOM      3  C   UNL     1     -15.057  20.600 -13.755  1.00  0.00     0.098 A 
ATOM      4  C   UNL     1     -15.727  19.966 -14.804  1.00  0.00     0.142 A 
ATOM      5  C   UNL     1     -17.092  20.240 -15.031  1.00  0.00     0.022 A 
ATOM      6  C   UNL     1     -17.772  21.147 -14.204  1.00  0.00     0.062 A 
ATOM      7  C   UNL     1     -17.736  19.591 -16.089  1.00  0.00     0.019 A 
ATOM      8  C   UNL     1     -17.016  18.697 -16.883  1.00  0.00     0.094 A 
ATOM      9  C   UNL     1     -15.665  18.475 -16.599  1.00  0.00     0.336 A 
ATOM     10  O   UNL     1     -14.998  17.674 -17.304  1.00  0.00    -0.246 OA
ATOM     11  O   UNL     1     -15.077  19.107 -15.586  1.00  0.00    -0.423 OA
ENDROOT
BRANCH   1  12
ATOM     12  O   UNL     1     -17.733  22.698 -12.294  1.00  0.00    -0.493 OA
ATOM     13  C   UNL     1     -19.126  22.686 -11.996  1.00  0.00     0.278 C 
ENDBRANCH   1  12
BRANCH   2  14
ATOM     14  O   UNL     1     -15.065  22.138 -11.882  1.00  0.00    -0.504 OA
ATOM     15  H   UNL     1     -14.071  22.006 -11.732  1.00  0.00     0.293 HD
ENDBRANCH   2  14
TORSDOF 2
ENDMDL
