MODEL 1
REMARK VINA RESULT:    -2.647      0.000      0.000
REMARK INTER + INTRA:         -10.687
REMARK INTER:                  -6.052
REMARK INTRA:                  -4.635
REMARK UNBOUND:                -4.635
REMARK SMILES CCCCCCCCCCCCCCCCCCCCCCCC(=O)[O-]
REMARK SMILES IDX 13 1 14 2 15 3 16 4 17 5 18 6 19 7 20 8 21 9 22 10 23 11
REMARK SMILES IDX 24 12 25 13 26 14 12 15 11 16 10 17 9 18 8 19 7 20 6 21 5 22
REMARK SMILES IDX 4 23 3 24 2 25 1 26
REMARK H PARENT
REMARK Flexibility Score: inf
ROOT
ATOM      1  C   UNL     1      -0.951  -3.608   7.217  1.00  0.00     0.000 C 
ENDROOT
BRANCH   1   2
ATOM      2  C   UNL     1      -2.397  -3.130   7.441  1.00  0.00     0.000 C 
BRANCH   2   3
ATOM      3  C   UNL     1      -2.941  -2.283   6.281  1.00  0.00     0.000 C 
BRANCH   3   4
ATOM      4  C   UNL     1      -3.046  -0.810   6.696  1.00  0.00     0.000 C 
BRANCH   4   5
ATOM      5  C   UNL     1      -3.015  -0.600   8.223  1.00  0.00     0.000 C 
BRANCH   5   6
ATOM      6  C   UNL     1      -4.179   0.228   8.801  1.00  0.00     0.000 C 
BRANCH   6   7
ATOM      7  C   UNL     1      -5.439  -0.577   9.174  1.00  0.00     0.000 C 
BRANCH   7   8
ATOM      8  C   UNL     1      -6.391  -0.849   7.987  1.00  0.00     0.000 C 
BRANCH   8   9
ATOM      9  C   UNL     1      -6.540  -2.335   7.618  1.00  0.00     0.000 C 
BRANCH   9  10
ATOM     10  C   UNL     1      -6.467  -2.580   6.099  1.00  0.00     0.006 C 
BRANCH  10  11
ATOM     11  C   UNL     1      -6.393  -4.074   5.758  1.00  0.00     0.053 C 
BRANCH  11  12
ATOM     12  C   UNL     1      -5.517  -4.328   4.566  1.00  0.00     0.041 C 
ATOM     13  O   UNL     1      -5.127  -5.497   4.303  1.00  0.00    -0.550 OA
ATOM     14  O   UNL     1      -5.160  -3.280   3.728  1.00  0.00    -0.550 OA
ENDBRANCH  11  12
ENDBRANCH  10  11
ENDBRANCH   9  10
ENDBRANCH   8   9
ENDBRANCH   7   8
ENDBRANCH   6   7
ENDBRANCH   5   6
ENDBRANCH   4   5
ENDBRANCH   3   4
ENDBRANCH   2   3
ENDBRANCH   1   2
BRANCH   1  15
ATOM     15  C   UNL     1       0.081  -2.489   6.960  1.00  0.00     0.000 C 
BRANCH  15  16
ATOM     16  C   UNL     1       0.587  -1.761   8.218  1.00  0.00     0.000 C 
BRANCH  16  17
ATOM     17  C   UNL     1       0.809  -0.258   7.992  1.00  0.00     0.000 C 
BRANCH  17  18
ATOM     18  C   UNL     1       0.595   0.107   6.516  1.00  0.00    -0.000 C 
BRANCH  18  19
ATOM     19  C   UNL     1      -0.170   1.430   6.329  1.00  0.00    -0.000 C 
BRANCH  19  20
ATOM     20  C   UNL     1      -0.557   2.150   7.636  1.00  0.00    -0.000 C 
BRANCH  20  21
ATOM     21  C   UNL     1      -1.881   2.939   7.584  1.00  0.00    -0.000 C 
BRANCH  21  22
ATOM     22  C   UNL     1      -2.671   2.806   6.269  1.00  0.00    -0.000 C 
BRANCH  22  23
ATOM     23  C   UNL     1      -4.117   3.315   6.388  1.00  0.00    -0.000 C 
BRANCH  23  24
ATOM     24  C   UNL     1      -5.155   2.240   6.025  1.00  0.00    -0.000 C 
BRANCH  24  25
ATOM     25  C   UNL     1      -4.979   1.668   4.602  1.00  0.00    -0.003 C 
ATOM     26  C   UNL     1      -5.935   0.509   4.320  1.00  0.00     0.004 C 
ENDBRANCH  24  25
ENDBRANCH  23  24
ENDBRANCH  22  23
ENDBRANCH  21  22
ENDBRANCH  20  21
ENDBRANCH  19  20
ENDBRANCH  18  19
ENDBRANCH  17  18
ENDBRANCH  16  17
ENDBRANCH  15  16
ENDBRANCH   1  15
TORSDOF 22
ENDMDL
MODEL 2
REMARK VINA RESULT:    -2.570     10.898     12.820
REMARK INTER + INTRA:         -10.509
REMARK INTER:                  -6.667
REMARK INTRA:                  -3.842
REMARK UNBOUND:                -4.635
REMARK SMILES CCCCCCCCCCCCCCCCCCCCCCCC(=O)[O-]
REMARK SMILES IDX 13 1 14 2 15 3 16 4 17 5 18 6 19 7 20 8 21 9 22 10 23 11
REMARK SMILES IDX 24 12 25 13 26 14 12 15 11 16 10 17 9 18 8 19 7 20 6 21 5 22
REMARK SMILES IDX 4 23 3 24 2 25 1 26
REMARK H PARENT
REMARK Flexibility Score: inf
ROOT
ATOM      1  C   UNL     1       6.838   5.763   2.669  1.00  0.00     0.000 C 
ENDROOT
BRANCH   1   2
ATOM      2  C   UNL     1       6.743   7.043   3.520  1.00  0.00     0.000 C 
BRANCH   2   3
ATOM      3  C   UNL     1       5.594   7.008   4.538  1.00  0.00     0.000 C 
BRANCH   3   4
ATOM      4  C   UNL     1       4.688   8.234   4.364  1.00  0.00     0.000 C 
BRANCH   4   5
ATOM      5  C   UNL     1       4.705   8.811   2.935  1.00  0.00     0.000 C 
BRANCH   5   6
ATOM      6  C   UNL     1       3.322   9.002   2.282  1.00  0.00     0.000 C 
BRANCH   6   7
ATOM      7  C   UNL     1       2.197   8.115   2.849  1.00  0.00     0.000 C 
BRANCH   7   8
ATOM      8  C   UNL     1       0.805   8.787   2.860  1.00  0.00     0.000 C 
BRANCH   8   9
ATOM      9  C   UNL     1      -0.321   7.926   2.262  1.00  0.00     0.000 C 
BRANCH   9  10
ATOM     10  C   UNL     1       0.001   7.434   0.838  1.00  0.00     0.006 C 
BRANCH  10  11
ATOM     11  C   UNL     1       0.019   8.581  -0.180  1.00  0.00     0.053 C 
BRANCH  11  12
ATOM     12  C   UNL     1      -0.808   8.262  -1.390  1.00  0.00     0.041 C 
ATOM     13  O   UNL     1      -0.324   7.571  -2.325  1.00  0.00    -0.550 OA
ATOM     14  O   UNL     1      -2.123   8.702  -1.471  1.00  0.00    -0.550 OA
ENDBRANCH  11  12
ENDBRANCH  10  11
ENDBRANCH   9  10
ENDBRANCH   8   9
ENDBRANCH   7   8
ENDBRANCH   6   7
ENDBRANCH   5   6
ENDBRANCH   4   5
ENDBRANCH   3   4
ENDBRANCH   2   3
ENDBRANCH   1   2
BRANCH   1  15
ATOM     15  C   UNL     1       6.170   5.845   1.280  1.00  0.00     0.000 C 
BRANCH  15  16
ATOM     16  C   UNL     1       7.132   5.747   0.082  1.00  0.00     0.000 C 
BRANCH  16  17
ATOM     17  C   UNL     1       6.874   6.823  -0.984  1.00  0.00     0.000 C 
BRANCH  17  18
ATOM     18  C   UNL     1       5.728   7.751  -0.552  1.00  0.00    -0.000 C 
BRANCH  18  19
ATOM     19  C   UNL     1       4.579   7.801  -1.574  1.00  0.00    -0.000 C 
BRANCH  19  20
ATOM     20  C   UNL     1       3.204   7.368  -1.031  1.00  0.00    -0.000 C 
BRANCH  20  21
ATOM     21  C   UNL     1       3.195   6.042  -0.243  1.00  0.00    -0.000 C 
BRANCH  21  22
ATOM     22  C   UNL     1       2.449   4.881  -0.923  1.00  0.00    -0.000 C 
BRANCH  22  23
ATOM     23  C   UNL     1       2.256   5.098  -2.433  1.00  0.00    -0.000 C 
BRANCH  23  24
ATOM     24  C   UNL     1       3.177   4.206  -3.282  1.00  0.00    -0.000 C 
BRANCH  24  25
ATOM     25  C   UNL     1       4.520   4.875  -3.645  1.00  0.00    -0.003 C 
ATOM     26  C   UNL     1       5.722   4.028  -3.227  1.00  0.00     0.004 C 
ENDBRANCH  24  25
ENDBRANCH  23  24
ENDBRANCH  22  23
ENDBRANCH  21  22
ENDBRANCH  20  21
ENDBRANCH  19  20
ENDBRANCH  18  19
ENDBRANCH  17  18
ENDBRANCH  16  17
ENDBRANCH  15  16
ENDBRANCH   1  15
TORSDOF 22
ENDMDL
MODEL 3
REMARK VINA RESULT:    -2.561     10.922     12.975
REMARK INTER + INTRA:         -10.489
REMARK INTER:                  -6.797
REMARK INTRA:                  -3.692
REMARK UNBOUND:                -4.635
REMARK SMILES CCCCCCCCCCCCCCCCCCCCCCCC(=O)[O-]
REMARK SMILES IDX 13 1 14 2 15 3 16 4 17 5 18 6 19 7 20 8 21 9 22 10 23 11
REMARK SMILES IDX 24 12 25 13 26 14 12 15 11 16 10 17 9 18 8 19 7 20 6 21 5 22
REMARK SMILES IDX 4 23 3 24 2 25 1 26
REMARK H PARENT
REMARK Flexibility Score: inf
ROOT
ATOM      1  C   UNL     1       2.959   9.612   3.198  1.00  0.00     0.000 C 
ENDROOT
BRANCH   1   2
ATOM      2  C   UNL     1       2.248   8.293   2.847  1.00  0.00     0.000 C 
BRANCH   2   3
ATOM      3  C   UNL     1       0.717   8.391   2.923  1.00  0.00     0.000 C 
BRANCH   3   4
ATOM      4  C   UNL     1       0.070   7.492   1.863  1.00  0.00     0.000 C 
BRANCH   4   5
ATOM      5  C   UNL     1      -0.044   8.159   0.478  1.00  0.00     0.000 C 
BRANCH   5   6
ATOM      6  C   UNL     1       0.902   7.604  -0.603  1.00  0.00     0.000 C 
BRANCH   6   7
ATOM      7  C   UNL     1       1.106   6.077  -0.580  1.00  0.00     0.000 C 
BRANCH   7   8
ATOM      8  C   UNL     1       2.556   5.637  -0.271  1.00  0.00     0.000 C 
BRANCH   8   9
ATOM      9  C   UNL     1       3.388   5.273  -1.513  1.00  0.00     0.000 C 
BRANCH   9  10
ATOM     10  C   UNL     1       2.604   4.411  -2.521  1.00  0.00     0.006 C 
BRANCH  10  11
ATOM     11  C   UNL     1       2.677   4.976  -3.945  1.00  0.00     0.053 C 
BRANCH  11  12
ATOM     12  C   UNL     1       1.807   6.186  -4.108  1.00  0.00     0.041 C 
ATOM     13  O   UNL     1       2.321   7.334  -4.174  1.00  0.00    -0.550 OA
ATOM     14  O   UNL     1       0.429   6.044  -4.220  1.00  0.00    -0.550 OA
ENDBRANCH  11  12
ENDBRANCH  10  11
ENDBRANCH   9  10
ENDBRANCH   8   9
ENDBRANCH   7   8
ENDBRANCH   6   7
ENDBRANCH   5   6
ENDBRANCH   4   5
ENDBRANCH   3   4
ENDBRANCH   2   3
ENDBRANCH   1   2
BRANCH   1  15
ATOM     15  C   UNL     1       3.584   9.669   4.609  1.00  0.00     0.000 C 
BRANCH  15  16
ATOM     16  C   UNL     1       5.065   9.257   4.688  1.00  0.00     0.000 C 
BRANCH  16  17
ATOM     17  C   UNL     1       5.269   7.870   5.317  1.00  0.00     0.000 C 
BRANCH  17  18
ATOM     18  C   UNL     1       5.800   6.874   4.276  1.00  0.00    -0.000 C 
BRANCH  18  19
ATOM     19  C   UNL     1       7.266   7.134   3.889  1.00  0.00    -0.000 C 
BRANCH  19  20
ATOM     20  C   UNL     1       7.817   6.228   2.770  1.00  0.00    -0.000 C 
BRANCH  20  21
ATOM     21  C   UNL     1       6.752   5.449   1.972  1.00  0.00    -0.000 C 
BRANCH  21  22
ATOM     22  C   UNL     1       6.653   5.815   0.481  1.00  0.00    -0.000 C 
BRANCH  22  23
ATOM     23  C   UNL     1       6.563   7.331   0.244  1.00  0.00    -0.000 C 
BRANCH  23  24
ATOM     24  C   UNL     1       5.215   7.922   0.690  1.00  0.00    -0.000 C 
BRANCH  24  25
ATOM     25  C   UNL     1       4.839   9.226  -0.045  1.00  0.00    -0.003 C 
ATOM     26  C   UNL     1       4.167   8.959  -1.393  1.00  0.00     0.004 C 
ENDBRANCH  24  25
ENDBRANCH  23  24
ENDBRANCH  22  23
ENDBRANCH  21  22
ENDBRANCH  20  21
ENDBRANCH  19  20
ENDBRANCH  18  19
ENDBRANCH  17  18
ENDBRANCH  16  17
ENDBRANCH  15  16
ENDBRANCH   1  15
TORSDOF 22
ENDMDL
MODEL 4
REMARK VINA RESULT:    -2.561     10.575     13.109
REMARK INTER + INTRA:         -10.489
REMARK INTER:                  -6.043
REMARK INTRA:                  -4.445
REMARK UNBOUND:                -4.635
REMARK SMILES CCCCCCCCCCCCCCCCCCCCCCCC(=O)[O-]
REMARK SMILES IDX 13 1 14 2 15 3 16 4 17 5 18 6 19 7 20 8 21 9 22 10 23 11
REMARK SMILES IDX 24 12 25 13 26 14 12 15 11 16 10 17 9 18 8 19 7 20 6 21 5 22
REMARK SMILES IDX 4 23 3 24 2 25 1 26
REMARK H PARENT
REMARK Flexibility Score: inf
ROOT
ATOM      1  C   UNL     1       6.947   5.748   0.382  1.00  0.00     0.000 C 
ENDROOT
BRANCH   1   2
ATOM      2  C   UNL     1       7.005   5.466   1.895  1.00  0.00     0.000 C 
BRANCH   2   3
ATOM      3  C   UNL     1       8.034   6.333   2.633  1.00  0.00     0.000 C 
BRANCH   3   4
ATOM      4  C   UNL     1       7.360   7.109   3.772  1.00  0.00     0.000 C 
BRANCH   4   5
ATOM      5  C   UNL     1       5.885   6.717   3.993  1.00  0.00     0.000 C 
BRANCH   5   6
ATOM      6  C   UNL     1       4.870   7.870   3.875  1.00  0.00     0.000 C 
BRANCH   6   7
ATOM      7  C   UNL     1       5.196   8.928   2.803  1.00  0.00     0.000 C 
BRANCH   7   8
ATOM      8  C   UNL     1       3.951   9.612   2.190  1.00  0.00     0.000 C 
BRANCH   8   9
ATOM      9  C   UNL     1       2.641   9.348   2.952  1.00  0.00     0.000 C 
BRANCH   9  10
ATOM     10  C   UNL     1       1.452   9.072   2.013  1.00  0.00     0.006 C 
BRANCH  10  11
ATOM     11  C   UNL     1       0.830   7.692   2.258  1.00  0.00     0.053 C 
BRANCH  11  12
ATOM     12  C   UNL     1      -0.640   7.684   1.959  1.00  0.00     0.041 C 
ATOM     13  O   UNL     1      -1.107   8.425   1.055  1.00  0.00    -0.550 OA
ATOM     14  O   UNL     1      -1.488   6.834   2.657  1.00  0.00    -0.550 OA
ENDBRANCH  11  12
ENDBRANCH  10  11
ENDBRANCH   9  10
ENDBRANCH   8   9
ENDBRANCH   7   8
ENDBRANCH   6   7
ENDBRANCH   5   6
ENDBRANCH   4   5
ENDBRANCH   3   4
ENDBRANCH   2   3
ENDBRANCH   1   2
BRANCH   1  15
ATOM     15  C   UNL     1       5.748   6.603  -0.083  1.00  0.00     0.000 C 
BRANCH  15  16
ATOM     16  C   UNL     1       4.378   6.168   0.469  1.00  0.00     0.000 C 
BRANCH  16  17
ATOM     17  C   UNL     1       3.200   6.815  -0.275  1.00  0.00     0.000 C 
BRANCH  17  18
ATOM     18  C   UNL     1       3.672   8.030  -1.087  1.00  0.00    -0.000 C 
BRANCH  18  19
ATOM     19  C   UNL     1       2.585   8.584  -2.025  1.00  0.00    -0.000 C 
BRANCH  19  20
ATOM     20  C   UNL     1       1.151   8.113  -1.713  1.00  0.00    -0.000 C 
BRANCH  20  21
ATOM     21  C   UNL     1       0.526   7.170  -2.760  1.00  0.00    -0.000 C 
BRANCH  21  22
ATOM     22  C   UNL     1       1.283   7.082  -4.097  1.00  0.00    -0.000 C 
BRANCH  22  23
ATOM     23  C   UNL     1       1.857   5.683  -4.368  1.00  0.00    -0.000 C 
BRANCH  23  24
ATOM     24  C   UNL     1       2.095   4.881  -3.077  1.00  0.00    -0.000 C 
BRANCH  24  25
ATOM     25  C   UNL     1       3.467   4.174  -3.034  1.00  0.00    -0.003 C 
ATOM     26  C   UNL     1       4.623   5.134  -3.318  1.00  0.00     0.004 C 
ENDBRANCH  24  25
ENDBRANCH  23  24
ENDBRANCH  22  23
ENDBRANCH  21  22
ENDBRANCH  20  21
ENDBRANCH  19  20
ENDBRANCH  18  19
ENDBRANCH  17  18
ENDBRANCH  16  17
ENDBRANCH  15  16
ENDBRANCH   1  15
TORSDOF 22
ENDMDL
MODEL 5
REMARK VINA RESULT:    -2.553      2.189      5.951
REMARK INTER + INTRA:         -10.471
REMARK INTER:                  -6.279
REMARK INTRA:                  -4.191
REMARK UNBOUND:                -4.635
REMARK SMILES CCCCCCCCCCCCCCCCCCCCCCCC(=O)[O-]
REMARK SMILES IDX 13 1 14 2 15 3 16 4 17 5 18 6 19 7 20 8 21 9 22 10 23 11
REMARK SMILES IDX 24 12 25 13 26 14 12 15 11 16 10 17 9 18 8 19 7 20 6 21 5 22
REMARK SMILES IDX 4 23 3 24 2 25 1 26
REMARK H PARENT
REMARK Flexibility Score: inf
ROOT
ATOM      1  C   UNL     1       1.065  -0.232   8.304  1.00  0.00     0.000 C 
ENDROOT
BRANCH   1   2
ATOM      2  C   UNL     1       0.421  -0.463   6.925  1.00  0.00     0.000 C 
BRANCH   2   3
ATOM      3  C   UNL     1       0.249   0.829   6.113  1.00  0.00     0.000 C 
BRANCH   3   4
ATOM      4  C   UNL     1       0.102   2.034   7.050  1.00  0.00     0.000 C 
BRANCH   4   5
ATOM      5  C   UNL     1      -1.358   2.497   7.230  1.00  0.00     0.000 C 
BRANCH   5   6
ATOM      6  C   UNL     1      -2.385   1.820   6.301  1.00  0.00     0.000 C 
BRANCH   6   7
ATOM      7  C   UNL     1      -3.633   1.250   7.002  1.00  0.00     0.000 C 
BRANCH   7   8
ATOM      8  C   UNL     1      -4.173  -0.055   6.373  1.00  0.00     0.000 C 
BRANCH   8   9
ATOM      9  C   UNL     1      -3.145  -1.198   6.301  1.00  0.00     0.000 C 
BRANCH   9  10
ATOM     10  C   UNL     1      -3.790  -2.555   5.961  1.00  0.00     0.006 C 
BRANCH  10  11
ATOM     11  C   UNL     1      -5.216  -2.398   5.417  1.00  0.00     0.053 C 
BRANCH  11  12
ATOM     12  C   UNL     1      -5.334  -2.910   4.012  1.00  0.00     0.041 C 
ATOM     13  O   UNL     1      -4.531  -2.519   3.124  1.00  0.00    -0.550 OA
ATOM     14  O   UNL     1      -6.310  -3.845   3.692  1.00  0.00    -0.550 OA
ENDBRANCH  11  12
ENDBRANCH  10  11
ENDBRANCH   9  10
ENDBRANCH   8   9
ENDBRANCH   7   8
ENDBRANCH   6   7
ENDBRANCH   5   6
ENDBRANCH   4   5
ENDBRANCH   3   4
ENDBRANCH   2   3
ENDBRANCH   1   2
BRANCH   1  15
ATOM     15  C   UNL     1       0.282  -0.811   9.502  1.00  0.00     0.000 C 
BRANCH  15  16
ATOM     16  C   UNL     1      -1.242  -0.604   9.453  1.00  0.00     0.000 C 
BRANCH  16  17
ATOM     17  C   UNL     1      -2.031  -1.907   9.649  1.00  0.00     0.000 C 
BRANCH  17  18
ATOM     18  C   UNL     1      -1.112  -3.127   9.492  1.00  0.00    -0.000 C 
BRANCH  18  19
ATOM     19  C   UNL     1      -1.383  -3.921   8.201  1.00  0.00    -0.000 C 
BRANCH  19  20
ATOM     20  C   UNL     1      -0.177  -4.053   7.252  1.00  0.00    -0.000 C 
BRANCH  20  21
ATOM     21  C   UNL     1       1.200  -4.118   7.943  1.00  0.00    -0.000 C 
BRANCH  21  22
ATOM     22  C   UNL     1       2.112  -5.269   7.480  1.00  0.00    -0.000 C 
BRANCH  22  23
ATOM     23  C   UNL     1       1.408  -6.635   7.505  1.00  0.00    -0.000 C 
BRANCH  23  24
ATOM     24  C   UNL     1       1.066  -7.099   8.931  1.00  0.00    -0.000 C 
BRANCH  24  25
ATOM     25  C   UNL     1      -0.397  -7.566   9.093  1.00  0.00    -0.003 C 
ATOM     26  C   UNL     1      -1.137  -7.630   7.756  1.00  0.00     0.004 C 
ENDBRANCH  24  25
ENDBRANCH  23  24
ENDBRANCH  22  23
ENDBRANCH  21  22
ENDBRANCH  20  21
ENDBRANCH  19  20
ENDBRANCH  18  19
ENDBRANCH  17  18
ENDBRANCH  16  17
ENDBRANCH  15  16
ENDBRANCH   1  15
TORSDOF 22
ENDMDL
MODEL 6
REMARK VINA RESULT:    -2.539      1.456      4.073
REMARK INTER + INTRA:         -10.438
REMARK INTER:                  -6.434
REMARK INTRA:                  -4.004
REMARK UNBOUND:                -4.635
REMARK SMILES CCCCCCCCCCCCCCCCCCCCCCCC(=O)[O-]
REMARK SMILES IDX 13 1 14 2 15 3 16 4 17 5 18 6 19 7 20 8 21 9 22 10 23 11
REMARK SMILES IDX 24 12 25 13 26 14 12 15 11 16 10 17 9 18 8 19 7 20 6 21 5 22
REMARK SMILES IDX 4 23 3 24 2 25 1 26
REMARK H PARENT
REMARK Flexibility Score: inf
ROOT
ATOM      1  C   UNL     1       0.652   0.411   6.651  1.00  0.00     0.000 C 
ENDROOT
BRANCH   1   2
ATOM      2  C   UNL     1      -0.340  -0.696   7.054  1.00  0.00     0.000 C 
BRANCH   2   3
ATOM      3  C   UNL     1      -0.318  -1.011   8.557  1.00  0.00     0.000 C 
BRANCH   3   4
ATOM      4  C   UNL     1       1.082  -1.467   8.987  1.00  0.00     0.000 C 
BRANCH   4   5
ATOM      5  C   UNL     1       1.200  -2.992   9.176  1.00  0.00     0.000 C 
BRANCH   5   6
ATOM      6  C   UNL     1       1.037  -3.831   7.893  1.00  0.00     0.000 C 
BRANCH   6   7
ATOM      7  C   UNL     1       0.220  -5.128   8.054  1.00  0.00     0.000 C 
BRANCH   7   8
ATOM      8  C   UNL     1      -1.311  -4.927   7.972  1.00  0.00     0.000 C 
BRANCH   8   9
ATOM      9  C   UNL     1      -1.769  -3.993   6.838  1.00  0.00     0.000 C 
BRANCH   9  10
ATOM     10  C   UNL     1      -3.066  -3.235   7.181  1.00  0.00     0.006 C 
BRANCH  10  11
ATOM     11  C   UNL     1      -3.580  -2.405   5.997  1.00  0.00     0.053 C 
BRANCH  11  12
ATOM     12  C   UNL     1      -4.250  -3.264   4.966  1.00  0.00     0.041 C 
ATOM     13  O   UNL     1      -4.180  -2.962   3.746  1.00  0.00    -0.550 OA
ATOM     14  O   UNL     1      -4.926  -4.415   5.351  1.00  0.00    -0.550 OA
ENDBRANCH  11  12
ENDBRANCH  10  11
ENDBRANCH   9  10
ENDBRANCH   8   9
ENDBRANCH   7   8
ENDBRANCH   6   7
ENDBRANCH   5   6
ENDBRANCH   4   5
ENDBRANCH   3   4
ENDBRANCH   2   3
ENDBRANCH   1   2
BRANCH   1  15
ATOM     15  C   UNL     1       0.143   1.855   6.847  1.00  0.00     0.000 C 
BRANCH  15  16
ATOM     16  C   UNL     1       0.457   2.482   8.217  1.00  0.00     0.000 C 
BRANCH  16  17
ATOM     17  C   UNL     1      -0.798   2.715   9.071  1.00  0.00     0.000 C 
BRANCH  17  18
ATOM     18  C   UNL     1      -2.062   2.683   8.199  1.00  0.00    -0.000 C 
BRANCH  18  19
ATOM     19  C   UNL     1      -3.091   1.641   8.672  1.00  0.00    -0.000 C 
BRANCH  19  20
ATOM     20  C   UNL     1      -3.765   0.832   7.546  1.00  0.00    -0.000 C 
BRANCH  20  21
ATOM     21  C   UNL     1      -3.534   1.372   6.120  1.00  0.00    -0.000 C 
BRANCH  21  22
ATOM     22  C   UNL     1      -4.714   2.154   5.516  1.00  0.00    -0.000 C 
BRANCH  22  23
ATOM     23  C   UNL     1      -5.204   1.562   4.186  1.00  0.00    -0.000 C 
BRANCH  23  24
ATOM     24  C   UNL     1      -5.761   0.137   4.342  1.00  0.00    -0.000 C 
BRANCH  24  25
ATOM     25  C   UNL     1      -7.059   0.069   5.175  1.00  0.00    -0.003 C 
ATOM     26  C   UNL     1      -6.910  -0.818   6.411  1.00  0.00     0.004 C 
ENDBRANCH  24  25
ENDBRANCH  23  24
ENDBRANCH  22  23
ENDBRANCH  21  22
ENDBRANCH  20  21
ENDBRANCH  19  20
ENDBRANCH  18  19
ENDBRANCH  17  18
ENDBRANCH  16  17
ENDBRANCH  15  16
ENDBRANCH   1  15
TORSDOF 22
ENDMDL
MODEL 7
REMARK VINA RESULT:    -2.525      1.503      4.328
REMARK INTER + INTRA:         -10.407
REMARK INTER:                  -6.245
REMARK INTRA:                  -4.162
REMARK UNBOUND:                -4.635
REMARK SMILES CCCCCCCCCCCCCCCCCCCCCCCC(=O)[O-]
REMARK SMILES IDX 13 1 14 2 15 3 16 4 17 5 18 6 19 7 20 8 21 9 22 10 23 11
REMARK SMILES IDX 24 12 25 13 26 14 12 15 11 16 10 17 9 18 8 19 7 20 6 21 5 22
REMARK SMILES IDX 4 23 3 24 2 25 1 26
REMARK H PARENT
REMARK Flexibility Score: inf
ROOT
ATOM      1  C   UNL     1      -2.087   2.650   6.760  1.00  0.00     0.000 C 
ENDROOT
BRANCH   1   2
ATOM      2  C   UNL     1      -2.859   3.072   8.023  1.00  0.00     0.000 C 
BRANCH   2   3
ATOM      3  C   UNL     1      -3.954   4.112   7.745  1.00  0.00     0.000 C 
BRANCH   3   4
ATOM      4  C   UNL     1      -5.335   3.538   8.084  1.00  0.00     0.000 C 
BRANCH   4   5
ATOM      5  C   UNL     1      -5.311   2.031   8.408  1.00  0.00     0.000 C 
BRANCH   5   6
ATOM      6  C   UNL     1      -5.948   1.115   7.345  1.00  0.00     0.000 C 
BRANCH   6   7
ATOM      7  C   UNL     1      -6.100   1.739   5.944  1.00  0.00     0.000 C 
BRANCH   7   8
ATOM      8  C   UNL     1      -5.121   1.173   4.889  1.00  0.00     0.000 C 
BRANCH   8   9
ATOM      9  C   UNL     1      -5.767   0.852   3.531  1.00  0.00     0.000 C 
BRANCH   9  10
ATOM     10  C   UNL     1      -6.600  -0.444   3.561  1.00  0.00     0.006 C 
BRANCH  10  11
ATOM     11  C   UNL     1      -5.912  -1.555   4.365  1.00  0.00     0.053 C 
BRANCH  11  12
ATOM     12  C   UNL     1      -5.347  -2.618   3.471  1.00  0.00     0.041 C 
ATOM     13  O   UNL     1      -4.564  -2.309   2.534  1.00  0.00    -0.550 OA
ATOM     14  O   UNL     1      -5.659  -3.954   3.694  1.00  0.00    -0.550 OA
ENDBRANCH  11  12
ENDBRANCH  10  11
ENDBRANCH   9  10
ENDBRANCH   8   9
ENDBRANCH   7   8
ENDBRANCH   6   7
ENDBRANCH   5   6
ENDBRANCH   4   5
ENDBRANCH   3   4
ENDBRANCH   2   3
ENDBRANCH   1   2
BRANCH   1  15
ATOM     15  C   UNL     1      -0.634   2.186   6.999  1.00  0.00     0.000 C 
BRANCH  15  16
ATOM     16  C   UNL     1      -0.105   1.143   5.998  1.00  0.00     0.000 C 
BRANCH  16  17
ATOM     17  C   UNL     1       1.136   0.396   6.511  1.00  0.00     0.000 C 
BRANCH  17  18
ATOM     18  C   UNL     1       1.043   0.164   8.026  1.00  0.00    -0.000 C 
BRANCH  18  19
ATOM     19  C   UNL     1       0.757  -1.303   8.392  1.00  0.00    -0.000 C 
BRANCH  19  20
ATOM     20  C   UNL     1      -0.402  -1.514   9.385  1.00  0.00    -0.000 C 
BRANCH  20  21
ATOM     21  C   UNL     1      -1.380  -0.329   9.516  1.00  0.00    -0.000 C 
BRANCH  21  22
ATOM     22  C   UNL     1      -2.785  -0.572   8.938  1.00  0.00    -0.000 C 
BRANCH  22  23
ATOM     23  C   UNL     1      -2.766  -0.883   7.433  1.00  0.00    -0.000 C 
BRANCH  23  24
ATOM     24  C   UNL     1      -3.634  -2.099   7.068  1.00  0.00    -0.000 C 
BRANCH  24  25
ATOM     25  C   UNL     1      -2.870  -3.189   6.286  1.00  0.00    -0.003 C 
ATOM     26  C   UNL     1      -1.918  -3.985   7.180  1.00  0.00     0.004 C 
ENDBRANCH  24  25
ENDBRANCH  23  24
ENDBRANCH  22  23
ENDBRANCH  21  22
ENDBRANCH  20  21
ENDBRANCH  19  20
ENDBRANCH  18  19
ENDBRANCH  17  18
ENDBRANCH  16  17
ENDBRANCH  15  16
ENDBRANCH   1  15
TORSDOF 22
ENDMDL
MODEL 8
REMARK VINA RESULT:    -2.522      1.642      3.245
REMARK INTER + INTRA:         -10.400
REMARK INTER:                  -6.321
REMARK INTRA:                  -4.079
REMARK UNBOUND:                -4.635
REMARK SMILES CCCCCCCCCCCCCCCCCCCCCCCC(=O)[O-]
REMARK SMILES IDX 13 1 14 2 15 3 16 4 17 5 18 6 19 7 20 8 21 9 22 10 23 11
REMARK SMILES IDX 24 12 25 13 26 14 12 15 11 16 10 17 9 18 8 19 7 20 6 21 5 22
REMARK SMILES IDX 4 23 3 24 2 25 1 26
REMARK H PARENT
REMARK Flexibility Score: inf
ROOT
ATOM      1  C   UNL     1      -2.564  -3.685   7.436  1.00  0.00     0.000 C 
ENDROOT
BRANCH   1   2
ATOM      2  C   UNL     1      -2.888  -2.862   8.696  1.00  0.00     0.000 C 
BRANCH   2   3
ATOM      3  C   UNL     1      -3.106  -1.370   8.405  1.00  0.00     0.000 C 
BRANCH   3   4
ATOM      4  C   UNL     1      -2.737  -1.049   6.951  1.00  0.00     0.000 C 
BRANCH   4   5
ATOM      5  C   UNL     1      -3.787  -0.181   6.230  1.00  0.00     0.000 C 
BRANCH   5   6
ATOM      6  C   UNL     1      -4.886   0.414   7.132  1.00  0.00     0.000 C 
BRANCH   6   7
ATOM      7  C   UNL     1      -5.877   1.360   6.427  1.00  0.00     0.000 C 
BRANCH   7   8
ATOM      8  C   UNL     1      -6.849   0.650   5.457  1.00  0.00     0.000 C 
BRANCH   8   9
ATOM      9  C   UNL     1      -6.588   0.941   3.969  1.00  0.00     0.000 C 
BRANCH   9  10
ATOM     10  C   UNL     1      -6.349  -0.340   3.146  1.00  0.00     0.006 C 
BRANCH  10  11
ATOM     11  C   UNL     1      -6.289  -1.592   4.031  1.00  0.00     0.053 C 
BRANCH  11  12
ATOM     12  C   UNL     1      -5.372  -2.632   3.460  1.00  0.00     0.041 C 
ATOM     13  O   UNL     1      -4.367  -3.019   4.113  1.00  0.00    -0.550 OA
ATOM     14  O   UNL     1      -5.645  -3.197   2.221  1.00  0.00    -0.550 OA
ENDBRANCH  11  12
ENDBRANCH  10  11
ENDBRANCH   9  10
ENDBRANCH   8   9
ENDBRANCH   7   8
ENDBRANCH   6   7
ENDBRANCH   5   6
ENDBRANCH   4   5
ENDBRANCH   3   4
ENDBRANCH   2   3
ENDBRANCH   1   2
BRANCH   1  15
ATOM     15  C   UNL     1      -1.225  -4.453   7.477  1.00  0.00     0.000 C 
BRANCH  15  16
ATOM     16  C   UNL     1       0.020  -3.622   7.120  1.00  0.00     0.000 C 
BRANCH  16  17
ATOM     17  C   UNL     1       1.048  -3.561   8.260  1.00  0.00     0.000 C 
BRANCH  17  18
ATOM     18  C   UNL     1       0.609  -2.553   9.333  1.00  0.00    -0.000 C 
BRANCH  18  19
ATOM     19  C   UNL     1       1.285  -1.179   9.178  1.00  0.00    -0.000 C 
BRANCH  19  20
ATOM     20  C   UNL     1       0.443  -0.117   8.444  1.00  0.00    -0.000 C 
BRANCH  20  21
ATOM     21  C   UNL     1       0.775   0.066   6.949  1.00  0.00    -0.000 C 
BRANCH  21  22
ATOM     22  C   UNL     1       0.144   1.303   6.285  1.00  0.00    -0.000 C 
BRANCH  22  23
ATOM     23  C   UNL     1      -0.410   2.310   7.305  1.00  0.00    -0.000 C 
BRANCH  23  24
ATOM     24  C   UNL     1      -1.851   2.744   6.986  1.00  0.00    -0.000 C 
BRANCH  24  25
ATOM     25  C   UNL     1      -2.670   3.127   8.237  1.00  0.00    -0.003 C 
ATOM     26  C   UNL     1      -2.494   2.122   9.376  1.00  0.00     0.004 C 
ENDBRANCH  24  25
ENDBRANCH  23  24
ENDBRANCH  22  23
ENDBRANCH  21  22
ENDBRANCH  20  21
ENDBRANCH  19  20
ENDBRANCH  18  19
ENDBRANCH  17  18
ENDBRANCH  16  17
ENDBRANCH  15  16
ENDBRANCH   1  15
TORSDOF 22
ENDMDL
MODEL 9
REMARK VINA RESULT:    -2.517      2.846      4.340
REMARK INTER + INTRA:         -10.389
REMARK INTER:                  -6.114
REMARK INTRA:                  -4.274
REMARK UNBOUND:                -4.635
REMARK SMILES CCCCCCCCCCCCCCCCCCCCCCCC(=O)[O-]
REMARK SMILES IDX 13 1 14 2 15 3 16 4 17 5 18 6 19 7 20 8 21 9 22 10 23 11
REMARK SMILES IDX 24 12 25 13 26 14 12 15 11 16 10 17 9 18 8 19 7 20 6 21 5 22
REMARK SMILES IDX 4 23 3 24 2 25 1 26
REMARK H PARENT
REMARK Flexibility Score: inf
ROOT
ATOM      1  C   UNL     1      -0.867  -1.089   8.871  1.00  0.00     0.000 C 
ENDROOT
BRANCH   1   2
ATOM      2  C   UNL     1      -2.254  -1.138   8.204  1.00  0.00     0.000 C 
BRANCH   2   3
ATOM      3  C   UNL     1      -2.205  -1.588   6.737  1.00  0.00     0.000 C 
BRANCH   3   4
ATOM      4  C   UNL     1      -3.613  -1.931   6.235  1.00  0.00     0.000 C 
BRANCH   4   5
ATOM      5  C   UNL     1      -3.705  -3.318   5.567  1.00  0.00     0.000 C 
BRANCH   5   6
ATOM      6  C   UNL     1      -4.368  -4.419   6.418  1.00  0.00     0.000 C 
BRANCH   6   7
ATOM      7  C   UNL     1      -3.396  -5.323   7.200  1.00  0.00     0.000 C 
BRANCH   7   8
ATOM      8  C   UNL     1      -3.021  -4.787   8.601  1.00  0.00     0.000 C 
BRANCH   8   9
ATOM      9  C   UNL     1      -1.512  -4.783   8.897  1.00  0.00     0.000 C 
BRANCH   9  10
ATOM     10  C   UNL     1      -0.692  -5.505   7.811  1.00  0.00     0.006 C 
BRANCH  10  11
ATOM     11  C   UNL     1       0.349  -4.583   7.164  1.00  0.00     0.053 C 
BRANCH  11  12
ATOM     12  C   UNL     1       1.722  -4.817   7.722  1.00  0.00     0.041 C 
ATOM     13  O   UNL     1       2.541  -5.548   7.106  1.00  0.00    -0.550 OA
ATOM     14  O   UNL     1       2.107  -4.200   8.906  1.00  0.00    -0.550 OA
ENDBRANCH  11  12
ENDBRANCH  10  11
ENDBRANCH   9  10
ENDBRANCH   8   9
ENDBRANCH   7   8
ENDBRANCH   6   7
ENDBRANCH   5   6
ENDBRANCH   4   5
ENDBRANCH   3   4
ENDBRANCH   2   3
ENDBRANCH   1   2
BRANCH   1  15
ATOM     15  C   UNL     1       0.330  -1.297   7.918  1.00  0.00     0.000 C 
BRANCH  15  16
ATOM     16  C   UNL     1       1.188  -0.046   7.659  1.00  0.00     0.000 C 
BRANCH  16  17
ATOM     17  C   UNL     1       0.752   0.732   6.409  1.00  0.00     0.000 C 
BRANCH  17  18
ATOM     18  C   UNL     1      -0.019   2.001   6.801  1.00  0.00    -0.000 C 
BRANCH  18  19
ATOM     19  C   UNL     1       0.267   2.456   8.243  1.00  0.00    -0.000 C 
BRANCH  19  20
ATOM     20  C   UNL     1      -0.983   2.785   9.083  1.00  0.00    -0.000 C 
BRANCH  20  21
ATOM     21  C   UNL     1      -2.332   2.464   8.408  1.00  0.00    -0.000 C 
BRANCH  21  22
ATOM     22  C   UNL     1      -3.069   3.676   7.810  1.00  0.00    -0.000 C 
BRANCH  22  23
ATOM     23  C   UNL     1      -3.411   3.492   6.323  1.00  0.00    -0.000 C 
BRANCH  23  24
ATOM     24  C   UNL     1      -3.520   2.012   5.919  1.00  0.00    -0.000 C 
BRANCH  24  25
ATOM     25  C   UNL     1      -4.974   1.532   5.718  1.00  0.00    -0.003 C 
ATOM     26  C   UNL     1      -5.614   1.060   7.024  1.00  0.00     0.004 C 
ENDBRANCH  24  25
ENDBRANCH  23  24
ENDBRANCH  22  23
ENDBRANCH  21  22
ENDBRANCH  20  21
ENDBRANCH  19  20
ENDBRANCH  18  19
ENDBRANCH  17  18
ENDBRANCH  16  17
ENDBRANCH  15  16
ENDBRANCH   1  15
TORSDOF 22
ENDMDL
