MODEL 1
REMARK VINA RESULT:    -0.419      0.000      0.000
REMARK INTER + INTRA:          -1.555
REMARK INTER:                  -1.105
REMARK INTRA:                  -0.449
REMARK UNBOUND:                -0.449
REMARK SMILES CCCCCCCCCCCCCCCCCCCCCCCCCCCCCC(=O)[O-]
REMARK SMILES IDX 16 1 17 2 18 3 19 4 20 5 21 6 22 7 23 8 24 9 25 10 26 11
REMARK SMILES IDX 27 12 28 13 29 14 30 15 31 16 32 17 15 18 14 19 13 20 12 21
REMARK SMILES IDX 11 22 10 23 9 24 8 25 7 26 6 27 5 28 4 29 3 30 2 31 1 32
REMARK H PARENT
REMARK Flexibility Score: inf
ROOT
ATOM      1  C   UNL     1     -14.120  11.807   5.882  1.00  0.00     0.000 C 
ENDROOT
BRANCH   1   2
ATOM      2  C   UNL     1     -14.480  10.325   6.074  1.00  0.00     0.000 C 
BRANCH   2   3
ATOM      3  C   UNL     1     -14.368   9.479   4.788  1.00  0.00     0.000 C 
BRANCH   3   4
ATOM      4  C   UNL     1     -13.312   9.961   3.770  1.00  0.00     0.000 C 
BRANCH   4   5
ATOM      5  C   UNL     1     -13.701   9.847   2.284  1.00  0.00     0.000 C 
BRANCH   5   6
ATOM      6  C   UNL     1     -14.436   8.554   1.881  1.00  0.00     0.000 C 
BRANCH   6   7
ATOM      7  C   UNL     1     -15.862   8.432   2.457  1.00  0.00     0.000 C 
BRANCH   7   8
ATOM      8  C   UNL     1     -16.881   7.939   1.414  1.00  0.00     0.000 C 
BRANCH   8   9
ATOM      9  C   UNL     1     -16.249   7.060   0.320  1.00  0.00     0.000 C 
BRANCH   9  10
ATOM     10  C   UNL     1     -17.041   5.788  -0.043  1.00  0.00     0.000 C 
BRANCH  10  11
ATOM     11  C   UNL     1     -16.199   4.627  -0.611  1.00  0.00     0.000 C 
BRANCH  11  12
ATOM     12  C   UNL     1     -14.893   5.042  -1.315  1.00  0.00     0.000 C 
BRANCH  12  13
ATOM     13  C   UNL     1     -14.036   6.072  -0.554  1.00  0.00     0.006 C 
BRANCH  13  14
ATOM     14  C   UNL     1     -12.521   5.894  -0.759  1.00  0.00     0.053 C 
BRANCH  14  15
ATOM     15  C   UNL     1     -11.838   7.176  -1.122  1.00  0.00     0.041 C 
ATOM     16  O   UNL     1     -11.975   8.196  -0.398  1.00  0.00    -0.550 OA
ATOM     17  O   UNL     1     -11.079   7.260  -2.285  1.00  0.00    -0.550 OA
ENDBRANCH  14  15
ENDBRANCH  13  14
ENDBRANCH  12  13
ENDBRANCH  11  12
ENDBRANCH  10  11
ENDBRANCH   9  10
ENDBRANCH   8   9
ENDBRANCH   7   8
ENDBRANCH   6   7
ENDBRANCH   5   6
ENDBRANCH   4   5
ENDBRANCH   3   4
ENDBRANCH   2   3
ENDBRANCH   1   2
BRANCH   1  18
ATOM     18  C   UNL     1     -14.615  12.701   7.032  1.00  0.00     0.000 C 
BRANCH  18  19
ATOM     19  C   UNL     1     -16.037  13.234   6.789  1.00  0.00     0.000 C 
BRANCH  19  20
ATOM     20  C   UNL     1     -17.118  12.194   7.137  1.00  0.00     0.000 C 
BRANCH  20  21
ATOM     21  C   UNL     1     -16.950  11.629   8.557  1.00  0.00     0.000 C 
BRANCH  21  22
ATOM     22  C   UNL     1     -16.281  10.246   8.559  1.00  0.00     0.000 C 
BRANCH  22  23
ATOM     23  C   UNL     1     -17.115   9.188   9.300  1.00  0.00     0.000 C 
BRANCH  23  24
ATOM     24  C   UNL     1     -16.474   7.782   9.295  1.00  0.00    -0.000 C 
BRANCH  24  25
ATOM     25  C   UNL     1     -15.457   7.566  10.437  1.00  0.00    -0.000 C 
BRANCH  25  26
ATOM     26  C   UNL     1     -16.099   7.116  11.765  1.00  0.00    -0.000 C 
BRANCH  26  27
ATOM     27  C   UNL     1     -15.848   8.059  12.956  1.00  0.00    -0.000 C 
BRANCH  27  28
ATOM     28  C   UNL     1     -16.552   9.419  12.799  1.00  0.00    -0.000 C 
BRANCH  28  29
ATOM     29  C   UNL     1     -15.597  10.612  12.972  1.00  0.00    -0.000 C 
BRANCH  29  30
ATOM     30  C   UNL     1     -15.751  11.699  11.889  1.00  0.00    -0.000 C 
BRANCH  30  31
ATOM     31  C   UNL     1     -14.993  12.987  12.244  1.00  0.00    -0.003 C 
ATOM     32  C   UNL     1     -14.138  13.466  11.073  1.00  0.00     0.004 C 
ENDBRANCH  30  31
ENDBRANCH  29  30
ENDBRANCH  28  29
ENDBRANCH  27  28
ENDBRANCH  26  27
ENDBRANCH  25  26
ENDBRANCH  24  25
ENDBRANCH  23  24
ENDBRANCH  22  23
ENDBRANCH  21  22
ENDBRANCH  20  21
ENDBRANCH  19  20
ENDBRANCH  18  19
ENDBRANCH   1  18
TORSDOF 28
ENDMDL
MODEL 2
REMARK VINA RESULT:    -0.117      3.285     11.220
REMARK INTER + INTRA:          -0.759
REMARK INTER:                   0.580
REMARK INTRA:                  -1.339
REMARK UNBOUND:                -0.449
REMARK SMILES CCCCCCCCCCCCCCCCCCCCCCCCCCCCCC(=O)[O-]
REMARK SMILES IDX 16 1 17 2 18 3 19 4 20 5 21 6 22 7 23 8 24 9 25 10 26 11
REMARK SMILES IDX 27 12 28 13 29 14 30 15 31 16 32 17 15 18 14 19 13 20 12 21
REMARK SMILES IDX 11 22 10 23 9 24 8 25 7 26 6 27 5 28 4 29 3 30 2 31 1 32
REMARK H PARENT
REMARK Flexibility Score: inf
ROOT
ATOM      1  C   UNL     1     -14.238  10.703   5.998  1.00  0.00     0.000 C 
ENDROOT
BRANCH   1   2
ATOM      2  C   UNL     1     -15.555  11.310   6.506  1.00  0.00     0.000 C 
BRANCH   2   3
ATOM      3  C   UNL     1     -16.318  10.413   7.505  1.00  0.00     0.000 C 
BRANCH   3   4
ATOM      4  C   UNL     1     -15.514   9.221   8.067  1.00  0.00     0.000 C 
BRANCH   4   5
ATOM      5  C   UNL     1     -16.278   8.277   9.016  1.00  0.00     0.000 C 
BRANCH   5   6
ATOM      6  C   UNL     1     -15.436   7.170   9.680  1.00  0.00     0.000 C 
BRANCH   6   7
ATOM      7  C   UNL     1     -15.532   7.142  11.220  1.00  0.00     0.000 C 
BRANCH   7   8
ATOM      8  C   UNL     1     -16.840   7.761  11.742  1.00  0.00     0.000 C 
BRANCH   8   9
ATOM      9  C   UNL     1     -16.673   8.477  13.095  1.00  0.00     0.000 C 
BRANCH   9  10
ATOM     10  C   UNL     1     -17.079   9.964  13.107  1.00  0.00     0.000 C 
BRANCH  10  11
ATOM     11  C   UNL     1     -17.077  10.660  11.731  1.00  0.00     0.000 C 
BRANCH  11  12
ATOM     12  C   UNL     1     -15.886  11.603  11.472  1.00  0.00     0.000 C 
BRANCH  12  13
ATOM     13  C   UNL     1     -16.247  13.095  11.344  1.00  0.00     0.006 C 
BRANCH  13  14
ATOM     14  C   UNL     1     -15.051  14.045  11.539  1.00  0.00     0.053 C 
BRANCH  14  15
ATOM     15  C   UNL     1     -14.234  14.201  10.294  1.00  0.00     0.041 C 
ATOM     16  O   UNL     1     -14.426  13.442   9.310  1.00  0.00    -0.550 OA
ATOM     17  O   UNL     1     -13.230  15.162  10.232  1.00  0.00    -0.550 OA
ENDBRANCH  14  15
ENDBRANCH  13  14
ENDBRANCH  12  13
ENDBRANCH  11  12
ENDBRANCH  10  11
ENDBRANCH   9  10
ENDBRANCH   8   9
ENDBRANCH   7   8
ENDBRANCH   6   7
ENDBRANCH   5   6
ENDBRANCH   4   5
ENDBRANCH   3   4
ENDBRANCH   2   3
ENDBRANCH   1   2
BRANCH   1  18
ATOM     18  C   UNL     1     -14.442   9.684   4.865  1.00  0.00     0.000 C 
BRANCH  18  19
ATOM     19  C   UNL     1     -13.344   9.772   3.792  1.00  0.00     0.000 C 
BRANCH  19  20
ATOM     20  C   UNL     1     -13.839   9.310   2.409  1.00  0.00     0.000 C 
BRANCH  20  21
ATOM     21  C   UNL     1     -14.968   8.271   2.510  1.00  0.00     0.000 C 
BRANCH  21  22
ATOM     22  C   UNL     1     -15.881   8.279   1.274  1.00  0.00     0.000 C 
BRANCH  22  23
ATOM     23  C   UNL     1     -15.843   6.949   0.504  1.00  0.00     0.000 C 
BRANCH  23  24
ATOM     24  C   UNL     1     -17.125   6.102   0.671  1.00  0.00    -0.000 C 
BRANCH  24  25
ATOM     25  C   UNL     1     -17.026   4.703   0.024  1.00  0.00    -0.000 C 
BRANCH  25  26
ATOM     26  C   UNL     1     -16.903   4.735  -1.512  1.00  0.00    -0.000 C 
BRANCH  26  27
ATOM     27  C   UNL     1     -15.751   3.890  -2.086  1.00  0.00    -0.000 C 
BRANCH  27  28
ATOM     28  C   UNL     1     -14.438   4.684  -2.216  1.00  0.00    -0.000 C 
BRANCH  28  29
ATOM     29  C   UNL     1     -14.016   5.364  -0.903  1.00  0.00    -0.000 C 
BRANCH  29  30
ATOM     30  C   UNL     1     -12.493   5.564  -0.763  1.00  0.00    -0.000 C 
BRANCH  30  31
ATOM     31  C   UNL     1     -12.027   6.913  -1.331  1.00  0.00    -0.003 C 
ATOM     32  C   UNL     1     -12.333   8.055  -0.365  1.00  0.00     0.004 C 
ENDBRANCH  30  31
ENDBRANCH  29  30
ENDBRANCH  28  29
ENDBRANCH  27  28
ENDBRANCH  26  27
ENDBRANCH  25  26
ENDBRANCH  24  25
ENDBRANCH  23  24
ENDBRANCH  22  23
ENDBRANCH  21  22
ENDBRANCH  20  21
ENDBRANCH  19  20
ENDBRANCH  18  19
ENDBRANCH   1  18
TORSDOF 28
ENDMDL
MODEL 3
REMARK VINA RESULT:     0.028      3.682     10.854
REMARK INTER + INTRA:          -0.375
REMARK INTER:                   0.821
REMARK INTRA:                  -1.196
REMARK UNBOUND:                -0.449
REMARK SMILES CCCCCCCCCCCCCCCCCCCCCCCCCCCCCC(=O)[O-]
REMARK SMILES IDX 16 1 17 2 18 3 19 4 20 5 21 6 22 7 23 8 24 9 25 10 26 11
REMARK SMILES IDX 27 12 28 13 29 14 30 15 31 16 32 17 15 18 14 19 13 20 12 21
REMARK SMILES IDX 11 22 10 23 9 24 8 25 7 26 6 27 5 28 4 29 3 30 2 31 1 32
REMARK H PARENT
REMARK Flexibility Score: inf
ROOT
ATOM      1  C   UNL     1     -14.926  12.562   9.374  1.00  0.00     0.000 C 
ENDROOT
BRANCH   1   2
ATOM      2  C   UNL     1     -15.253  14.063   9.342  1.00  0.00     0.000 C 
BRANCH   2   3
ATOM      3  C   UNL     1     -14.872  14.818  10.633  1.00  0.00     0.000 C 
BRANCH   3   4
ATOM      4  C   UNL     1     -16.056  15.213  11.541  1.00  0.00     0.000 C 
BRANCH   4   5
ATOM      5  C   UNL     1     -16.078  14.574  12.943  1.00  0.00     0.000 C 
BRANCH   5   6
ATOM      6  C   UNL     1     -15.208  13.314  13.118  1.00  0.00     0.000 C 
BRANCH   6   7
ATOM      7  C   UNL     1     -15.994  11.988  13.044  1.00  0.00     0.000 C 
BRANCH   7   8
ATOM      8  C   UNL     1     -16.474  11.664  11.618  1.00  0.00     0.000 C 
BRANCH   8   9
ATOM      9  C   UNL     1     -17.125  10.274  11.500  1.00  0.00     0.000 C 
BRANCH   9  10
ATOM     10  C   UNL     1     -16.593   9.212  12.482  1.00  0.00     0.000 C 
BRANCH  10  11
ATOM     11  C   UNL     1     -16.893   7.749  12.098  1.00  0.00     0.000 C 
BRANCH  11  12
ATOM     12  C   UNL     1     -16.150   6.684  12.927  1.00  0.00     0.000 C 
BRANCH  12  13
ATOM     13  C   UNL     1     -14.613   6.771  12.880  1.00  0.00     0.006 C 
BRANCH  13  14
ATOM     14  C   UNL     1     -13.988   6.092  11.647  1.00  0.00     0.053 C 
BRANCH  14  15
ATOM     15  C   UNL     1     -13.941   4.601  11.776  1.00  0.00     0.041 C 
ATOM     16  O   UNL     1     -14.793   3.998  12.478  1.00  0.00    -0.550 OA
ATOM     17  O   UNL     1     -12.930   3.876  11.154  1.00  0.00    -0.550 OA
ENDBRANCH  14  15
ENDBRANCH  13  14
ENDBRANCH  12  13
ENDBRANCH  11  12
ENDBRANCH  10  11
ENDBRANCH   9  10
ENDBRANCH   8   9
ENDBRANCH   7   8
ENDBRANCH   6   7
ENDBRANCH   5   6
ENDBRANCH   4   5
ENDBRANCH   3   4
ENDBRANCH   2   3
ENDBRANCH   1   2
BRANCH   1  18
ATOM     18  C   UNL     1     -14.123  12.094   8.148  1.00  0.00     0.000 C 
BRANCH  18  19
ATOM     19  C   UNL     1     -14.831  12.424   6.823  1.00  0.00     0.000 C 
BRANCH  19  20
ATOM     20  C   UNL     1     -15.917  11.392   6.468  1.00  0.00     0.000 C 
BRANCH  20  21
ATOM     21  C   UNL     1     -15.537   9.968   6.906  1.00  0.00     0.000 C 
BRANCH  21  22
ATOM     22  C   UNL     1     -16.520   8.912   6.378  1.00  0.00     0.000 C 
BRANCH  22  23
ATOM     23  C   UNL     1     -17.124   9.297   5.018  1.00  0.00     0.000 C 
BRANCH  23  24
ATOM     24  C   UNL     1     -17.023   8.177   3.958  1.00  0.00    -0.000 C 
BRANCH  24  25
ATOM     25  C   UNL     1     -17.014   8.704   2.507  1.00  0.00    -0.000 C 
BRANCH  25  26
ATOM     26  C   UNL     1     -16.156   7.859   1.543  1.00  0.00    -0.000 C 
BRANCH  26  27
ATOM     27  C   UNL     1     -14.703   8.341   1.380  1.00  0.00    -0.000 C 
BRANCH  27  28
ATOM     28  C   UNL     1     -13.945   7.583   0.275  1.00  0.00    -0.000 C 
BRANCH  28  29
ATOM     29  C   UNL     1     -14.587   6.229  -0.072  1.00  0.00    -0.000 C 
BRANCH  29  30
ATOM     30  C   UNL     1     -13.790   5.406  -1.105  1.00  0.00    -0.000 C 
BRANCH  30  31
ATOM     31  C   UNL     1     -14.631   4.283  -1.730  1.00  0.00    -0.003 C 
ATOM     32  C   UNL     1     -16.034   4.244  -1.130  1.00  0.00     0.004 C 
ENDBRANCH  30  31
ENDBRANCH  29  30
ENDBRANCH  28  29
ENDBRANCH  27  28
ENDBRANCH  26  27
ENDBRANCH  25  26
ENDBRANCH  24  25
ENDBRANCH  23  24
ENDBRANCH  22  23
ENDBRANCH  21  22
ENDBRANCH  20  21
ENDBRANCH  19  20
ENDBRANCH  18  19
ENDBRANCH   1  18
TORSDOF 28
ENDMDL
MODEL 4
REMARK VINA RESULT:     0.339      3.521     11.026
REMARK INTER + INTRA:           0.444
REMARK INTER:                   2.510
REMARK INTRA:                  -2.066
REMARK UNBOUND:                -0.449
REMARK SMILES CCCCCCCCCCCCCCCCCCCCCCCCCCCCCC(=O)[O-]
REMARK SMILES IDX 16 1 17 2 18 3 19 4 20 5 21 6 22 7 23 8 24 9 25 10 26 11
REMARK SMILES IDX 27 12 28 13 29 14 30 15 31 16 32 17 15 18 14 19 13 20 12 21
REMARK SMILES IDX 11 22 10 23 9 24 8 25 7 26 6 27 5 28 4 29 3 30 2 31 1 32
REMARK H PARENT
REMARK Flexibility Score: inf
ROOT
ATOM      1  C   UNL     1     -14.437  10.696   5.423  1.00  0.00     0.000 C 
ENDROOT
BRANCH   1   2
ATOM      2  C   UNL     1     -13.566  11.906   5.794  1.00  0.00     0.000 C 
BRANCH   2   3
ATOM      3  C   UNL     1     -14.340  13.052   6.481  1.00  0.00     0.000 C 
BRANCH   3   4
ATOM      4  C   UNL     1     -14.439  12.953   8.018  1.00  0.00     0.000 C 
BRANCH   4   5
ATOM      5  C   UNL     1     -15.743  12.350   8.575  1.00  0.00     0.000 C 
BRANCH   5   6
ATOM      6  C   UNL     1     -16.177  12.858   9.964  1.00  0.00     0.000 C 
BRANCH   6   7
ATOM      7  C   UNL     1     -15.034  12.918  11.000  1.00  0.00     0.000 C 
BRANCH   7   8
ATOM      8  C   UNL     1     -15.300  12.027  12.226  1.00  0.00     0.000 C 
BRANCH   8   9
ATOM      9  C   UNL     1     -16.559  11.153  12.077  1.00  0.00     0.000 C 
BRANCH   9  10
ATOM     10  C   UNL     1     -16.660   9.972  13.062  1.00  0.00     0.000 C 
BRANCH  10  11
ATOM     11  C   UNL     1     -16.224   8.604  12.497  1.00  0.00     0.000 C 
BRANCH  11  12
ATOM     12  C   UNL     1     -16.016   8.557  10.971  1.00  0.00     0.000 C 
BRANCH  12  13
ATOM     13  C   UNL     1     -15.599   7.185  10.408  1.00  0.00     0.006 C 
BRANCH  13  14
ATOM     14  C   UNL     1     -15.401   6.104  11.486  1.00  0.00     0.053 C 
BRANCH  14  15
ATOM     15  C   UNL     1     -13.955   5.823  11.758  1.00  0.00     0.041 C 
ATOM     16  O   UNL     1     -13.468   4.694  11.490  1.00  0.00    -0.550 OA
ATOM     17  O   UNL     1     -13.152   6.794  12.345  1.00  0.00    -0.550 OA
ENDBRANCH  14  15
ENDBRANCH  13  14
ENDBRANCH  12  13
ENDBRANCH  11  12
ENDBRANCH  10  11
ENDBRANCH   9  10
ENDBRANCH   8   9
ENDBRANCH   7   8
ENDBRANCH   6   7
ENDBRANCH   5   6
ENDBRANCH   4   5
ENDBRANCH   3   4
ENDBRANCH   2   3
ENDBRANCH   1   2
BRANCH   1  18
ATOM     18  C   UNL     1     -13.663   9.609   4.657  1.00  0.00     0.000 C 
BRANCH  18  19
ATOM     19  C   UNL     1     -14.105   9.499   3.189  1.00  0.00     0.000 C 
BRANCH  19  20
ATOM     20  C   UNL     1     -15.363   8.627   3.021  1.00  0.00     0.000 C 
BRANCH  20  21
ATOM     21  C   UNL     1     -15.633   8.266   1.551  1.00  0.00     0.000 C 
BRANCH  21  22
ATOM     22  C   UNL     1     -17.021   7.638   1.350  1.00  0.00     0.000 C 
BRANCH  22  23
ATOM     23  C   UNL     1     -17.107   6.800   0.064  1.00  0.00     0.000 C 
BRANCH  23  24
ATOM     24  C   UNL     1     -16.406   5.428   0.174  1.00  0.00    -0.000 C 
BRANCH  24  25
ATOM     25  C   UNL     1     -17.007   4.354  -0.760  1.00  0.00    -0.000 C 
BRANCH  25  26
ATOM     26  C   UNL     1     -16.131   4.035  -1.987  1.00  0.00    -0.000 C 
BRANCH  26  27
ATOM     27  C   UNL     1     -14.861   4.896  -2.117  1.00  0.00    -0.000 C 
BRANCH  27  28
ATOM     28  C   UNL     1     -13.645   4.275  -1.405  1.00  0.00    -0.000 C 
BRANCH  28  29
ATOM     29  C   UNL     1     -12.815   5.310  -0.626  1.00  0.00    -0.000 C 
BRANCH  29  30
ATOM     30  C   UNL     1     -13.301   6.762  -0.803  1.00  0.00    -0.000 C 
BRANCH  30  31
ATOM     31  C   UNL     1     -12.152   7.778  -0.707  1.00  0.00    -0.003 C 
ATOM     32  C   UNL     1     -12.551   8.986   0.137  1.00  0.00     0.004 C 
ENDBRANCH  30  31
ENDBRANCH  29  30
ENDBRANCH  28  29
ENDBRANCH  27  28
ENDBRANCH  26  27
ENDBRANCH  25  26
ENDBRANCH  24  25
ENDBRANCH  23  24
ENDBRANCH  22  23
ENDBRANCH  21  22
ENDBRANCH  20  21
ENDBRANCH  19  20
ENDBRANCH  18  19
ENDBRANCH   1  18
TORSDOF 28
ENDMDL
MODEL 5
REMARK VINA RESULT:     0.745      1.285      2.624
REMARK INTER + INTRA:           1.517
REMARK INTER:                   1.566
REMARK INTRA:                  -0.049
REMARK UNBOUND:                -0.449
REMARK SMILES CCCCCCCCCCCCCCCCCCCCCCCCCCCCCC(=O)[O-]
REMARK SMILES IDX 16 1 17 2 18 3 19 4 20 5 21 6 22 7 23 8 24 9 25 10 26 11
REMARK SMILES IDX 27 12 28 13 29 14 30 15 31 16 32 17 15 18 14 19 13 20 12 21
REMARK SMILES IDX 11 22 10 23 9 24 8 25 7 26 6 27 5 28 4 29 3 30 2 31 1 32
REMARK H PARENT
REMARK Flexibility Score: inf
ROOT
ATOM      1  C   UNL     1     -13.376  10.139   3.977  1.00  0.00     0.000 C 
ENDROOT
BRANCH   1   2
ATOM      2  C   UNL     1     -13.754   9.851   2.515  1.00  0.00     0.000 C 
BRANCH   2   3
ATOM      3  C   UNL     1     -14.643   8.603   2.329  1.00  0.00     0.000 C 
BRANCH   3   4
ATOM      4  C   UNL     1     -16.132   8.794   2.691  1.00  0.00     0.000 C 
BRANCH   4   5
ATOM      5  C   UNL     1     -17.101   7.722   2.156  1.00  0.00     0.000 C 
BRANCH   5   6
ATOM      6  C   UNL     1     -17.123   7.543   0.626  1.00  0.00     0.000 C 
BRANCH   6   7
ATOM      7  C   UNL     1     -16.278   6.356   0.117  1.00  0.00     0.000 C 
BRANCH   7   8
ATOM      8  C   UNL     1     -17.010   5.008   0.253  1.00  0.00     0.000 C 
BRANCH   8   9
ATOM      9  C   UNL     1     -17.033   4.197  -1.055  1.00  0.00     0.000 C 
BRANCH   9  10
ATOM     10  C   UNL     1     -15.949   4.575  -2.083  1.00  0.00     0.000 C 
BRANCH  10  11
ATOM     11  C   UNL     1     -14.494   4.411  -1.596  1.00  0.00     0.000 C 
BRANCH  11  12
ATOM     12  C   UNL     1     -13.798   5.711  -1.148  1.00  0.00     0.000 C 
BRANCH  12  13
ATOM     13  C   UNL     1     -12.261   5.644  -1.083  1.00  0.00     0.006 C 
BRANCH  13  14
ATOM     14  C   UNL     1     -11.564   6.963  -1.462  1.00  0.00     0.053 C 
BRANCH  14  15
ATOM     15  C   UNL     1     -12.101   8.135  -0.699  1.00  0.00     0.041 C 
ATOM     16  O   UNL     1     -12.652   7.965   0.419  1.00  0.00    -0.550 OA
ATOM     17  O   UNL     1     -12.030   9.414  -1.241  1.00  0.00    -0.550 OA
ENDBRANCH  14  15
ENDBRANCH  13  14
ENDBRANCH  12  13
ENDBRANCH  11  12
ENDBRANCH  10  11
ENDBRANCH   9  10
ENDBRANCH   8   9
ENDBRANCH   7   8
ENDBRANCH   6   7
ENDBRANCH   5   6
ENDBRANCH   4   5
ENDBRANCH   3   4
ENDBRANCH   2   3
ENDBRANCH   1   2
BRANCH   1  18
ATOM     18  C   UNL     1     -14.226   9.348   4.986  1.00  0.00     0.000 C 
BRANCH  18  19
ATOM     19  C   UNL     1     -14.914  10.259   6.015  1.00  0.00     0.000 C 
BRANCH  19  20
ATOM     20  C   UNL     1     -16.431  10.010   6.095  1.00  0.00     0.000 C 
BRANCH  20  21
ATOM     21  C   UNL     1     -16.858   9.431   7.453  1.00  0.00     0.000 C 
BRANCH  21  22
ATOM     22  C   UNL     1     -15.678   9.296   8.428  1.00  0.00     0.000 C 
BRANCH  22  23
ATOM     23  C   UNL     1     -15.935   8.249   9.523  1.00  0.00     0.000 C 
BRANCH  23  24
ATOM     24  C   UNL     1     -16.596   8.832  10.792  1.00  0.00    -0.000 C 
BRANCH  24  25
ATOM     25  C   UNL     1     -15.813   8.528  12.088  1.00  0.00    -0.000 C 
BRANCH  25  26
ATOM     26  C   UNL     1     -15.827   9.683  13.110  1.00  0.00    -0.000 C 
BRANCH  26  27
ATOM     27  C   UNL     1     -16.882  10.771  12.840  1.00  0.00    -0.000 C 
BRANCH  27  28
ATOM     28  C   UNL     1     -16.327  12.197  13.020  1.00  0.00    -0.000 C 
BRANCH  28  29
ATOM     29  C   UNL     1     -16.243  12.977  11.697  1.00  0.00    -0.000 C 
BRANCH  29  30
ATOM     30  C   UNL     1     -14.880  12.856  10.985  1.00  0.00    -0.000 C 
BRANCH  30  31
ATOM     31  C   UNL     1     -15.026  12.460   9.508  1.00  0.00    -0.003 C 
ATOM     32  C   UNL     1     -14.160  13.341   8.612  1.00  0.00     0.004 C 
ENDBRANCH  30  31
ENDBRANCH  29  30
ENDBRANCH  28  29
ENDBRANCH  27  28
ENDBRANCH  26  27
ENDBRANCH  25  26
ENDBRANCH  24  25
ENDBRANCH  23  24
ENDBRANCH  22  23
ENDBRANCH  21  22
ENDBRANCH  20  21
ENDBRANCH  19  20
ENDBRANCH  18  19
ENDBRANCH   1  18
TORSDOF 28
ENDMDL
MODEL 6
REMARK VINA RESULT:     0.789      3.130     10.646
REMARK INTER + INTRA:           1.631
REMARK INTER:                   3.292
REMARK INTRA:                  -1.661
REMARK UNBOUND:                -0.449
REMARK SMILES CCCCCCCCCCCCCCCCCCCCCCCCCCCCCC(=O)[O-]
REMARK SMILES IDX 16 1 17 2 18 3 19 4 20 5 21 6 22 7 23 8 24 9 25 10 26 11
REMARK SMILES IDX 27 12 28 13 29 14 30 15 31 16 32 17 15 18 14 19 13 20 12 21
REMARK SMILES IDX 11 22 10 23 9 24 8 25 7 26 6 27 5 28 4 29 3 30 2 31 1 32
REMARK H PARENT
REMARK Flexibility Score: inf
ROOT
ATOM      1  C   UNL     1     -17.092   9.085   4.309  1.00  0.00     0.000 C 
ENDROOT
BRANCH   1   2
ATOM      2  C   UNL     1     -17.017   8.840   5.825  1.00  0.00     0.000 C 
BRANCH   2   3
ATOM      3  C   UNL     1     -16.341   9.981   6.615  1.00  0.00     0.000 C 
BRANCH   3   4
ATOM      4  C   UNL     1     -17.124  10.486   7.846  1.00  0.00     0.000 C 
BRANCH   4   5
ATOM      5  C   UNL     1     -16.941   9.675   9.143  1.00  0.00     0.000 C 
BRANCH   5   6
ATOM      6  C   UNL     1     -16.546   8.197   8.960  1.00  0.00     0.000 C 
BRANCH   6   7
ATOM      7  C   UNL     1     -15.722   7.614  10.127  1.00  0.00     0.000 C 
BRANCH   7   8
ATOM      8  C   UNL     1     -16.461   7.702  11.475  1.00  0.00     0.000 C 
BRANCH   8   9
ATOM      9  C   UNL     1     -15.794   8.672  12.467  1.00  0.00     0.000 C 
BRANCH   9  10
ATOM     10  C   UNL     1     -16.578   9.970  12.746  1.00  0.00     0.000 C 
BRANCH  10  11
ATOM     11  C   UNL     1     -15.716  11.238  12.912  1.00  0.00     0.000 C 
BRANCH  11  12
ATOM     12  C   UNL     1     -15.971  12.348  11.874  1.00  0.00     0.000 C 
BRANCH  12  13
ATOM     13  C   UNL     1     -14.979  13.526  11.917  1.00  0.00     0.006 C 
BRANCH  13  14
ATOM     14  C   UNL     1     -13.951  13.517  10.770  1.00  0.00     0.053 C 
BRANCH  14  15
ATOM     15  C   UNL     1     -14.596  13.395   9.424  1.00  0.00     0.041 C 
ATOM     16  O   UNL     1     -13.894  13.412   8.380  1.00  0.00    -0.550 OA
ATOM     17  O   UNL     1     -15.980  13.302   9.317  1.00  0.00    -0.550 OA
ENDBRANCH  14  15
ENDBRANCH  13  14
ENDBRANCH  12  13
ENDBRANCH  11  12
ENDBRANCH  10  11
ENDBRANCH   9  10
ENDBRANCH   8   9
ENDBRANCH   7   8
ENDBRANCH   6   7
ENDBRANCH   5   6
ENDBRANCH   4   5
ENDBRANCH   3   4
ENDBRANCH   2   3
ENDBRANCH   1   2
BRANCH   1  18
ATOM     18  C   UNL     1     -17.125   7.784   3.490  1.00  0.00     0.000 C 
BRANCH  18  19
ATOM     19  C   UNL     1     -16.986   8.038   1.980  1.00  0.00     0.000 C 
BRANCH  19  20
ATOM     20  C   UNL     1     -17.012   6.733   1.163  1.00  0.00     0.000 C 
BRANCH  20  21
ATOM     21  C   UNL     1     -16.424   6.913  -0.246  1.00  0.00     0.000 C 
BRANCH  21  22
ATOM     22  C   UNL     1     -15.676   5.661  -0.731  1.00  0.00     0.000 C 
BRANCH  22  23
ATOM     23  C   UNL     1     -14.406   5.380   0.088  1.00  0.00     0.000 C 
BRANCH  23  24
ATOM     24  C   UNL     1     -13.116   5.355  -0.763  1.00  0.00    -0.000 C 
BRANCH  24  25
ATOM     25  C   UNL     1     -12.939   6.610  -1.647  1.00  0.00    -0.000 C 
BRANCH  25  26
ATOM     26  C   UNL     1     -11.910   7.618  -1.097  1.00  0.00    -0.000 C 
BRANCH  26  27
ATOM     27  C   UNL     1     -12.205   8.133   0.323  1.00  0.00    -0.000 C 
BRANCH  27  28
ATOM     28  C   UNL     1     -13.607   8.756   0.452  1.00  0.00    -0.000 C 
BRANCH  28  29
ATOM     29  C   UNL     1     -13.780   9.581   1.739  1.00  0.00    -0.000 C 
BRANCH  29  30
ATOM     30  C   UNL     1     -12.451   9.937   2.436  1.00  0.00    -0.000 C 
BRANCH  30  31
ATOM     31  C   UNL     1     -12.670  10.587   3.811  1.00  0.00    -0.003 C 
ATOM     32  C   UNL     1     -13.627   9.762   4.667  1.00  0.00     0.004 C 
ENDBRANCH  30  31
ENDBRANCH  29  30
ENDBRANCH  28  29
ENDBRANCH  27  28
ENDBRANCH  26  27
ENDBRANCH  25  26
ENDBRANCH  24  25
ENDBRANCH  23  24
ENDBRANCH  22  23
ENDBRANCH  21  22
ENDBRANCH  20  21
ENDBRANCH  19  20
ENDBRANCH  18  19
ENDBRANCH   1  18
TORSDOF 28
ENDMDL
