MODEL 1
REMARK VINA RESULT:    -5.819      0.000      0.000
REMARK INTER + INTRA:          -7.325
REMARK INTER:                  -7.009
REMARK INTRA:                  -0.316
REMARK UNBOUND:                -0.316
REMARK SMILES O=c1c(O)c(-c2ccc(O)c(O)c2)oc2cc(O)cc(O)c12
REMARK SMILES IDX 5 1 3 2 2 3 1 4 22 5 20 6 19 7 17 8 16 9 15 10 14 11 6 12
REMARK SMILES IDX 7 13 8 14 9 15 13 16 11 17 10 18 12 20 4 22 21 24 18 26
REMARK H PARENT 10 19 12 21 4 23 21 25 18 27
REMARK Flexibility Score: inf
ROOT
ATOM      1  C   UNL     1      -6.537   6.347  -6.807  1.00  0.00     0.180 A 
ATOM      2  C   UNL     1      -7.337   7.099  -5.930  1.00  0.00     0.208 A 
ATOM      3  C   UNL     1      -7.469   6.679  -4.597  1.00  0.00     0.238 A 
ATOM      4  O   UNL     1      -8.125   7.399  -3.800  1.00  0.00    -0.285 OA
ATOM      5  C   UNL     1      -6.847   5.481  -4.171  1.00  0.00     0.111 A 
ATOM      6  C   UNL     1      -6.950   4.936  -2.855  1.00  0.00     0.134 A 
ATOM      7  C   UNL     1      -6.203   3.800  -2.518  1.00  0.00     0.093 A 
ATOM      8  C   UNL     1      -5.408   3.152  -3.467  1.00  0.00     0.123 A 
ATOM      9  C   UNL     1      -5.345   3.645  -4.767  1.00  0.00     0.094 A 
ATOM     10  C   UNL     1      -6.046   4.798  -5.124  1.00  0.00     0.146 A 
ATOM     11  O   UNL     1      -5.940   5.245  -6.369  1.00  0.00    -0.452 OA
ENDROOT
BRANCH   1  12
ATOM     12  C   UNL     1      -6.338   6.734  -8.221  1.00  0.00     0.025 A 
ATOM     13  C   UNL     1      -5.396   7.711  -8.588  1.00  0.00     0.016 A 
ATOM     14  C   UNL     1      -5.208   8.042  -9.934  1.00  0.00     0.051 A 
ATOM     15  C   UNL     1      -5.948   7.393 -10.930  1.00  0.00     0.157 A 
ATOM     16  C   UNL     1      -7.062   6.071  -9.228  1.00  0.00     0.062 A 
ATOM     17  C   UNL     1      -6.873   6.403 -10.577  1.00  0.00     0.158 A 
BRANCH  15  18
ATOM     18  O   UNL     1      -5.765   7.721 -12.272  1.00  0.00    -0.504 OA
ATOM     19  H   UNL     1      -5.269   7.105 -12.906  1.00  0.00     0.293 HD
ENDBRANCH  15  18
BRANCH  17  20
ATOM     20  O   UNL     1      -7.603   5.754 -11.572  1.00  0.00    -0.504 OA
ATOM     21  H   UNL     1      -7.952   6.252 -12.383  1.00  0.00     0.293 HD
ENDBRANCH  17  20
ENDBRANCH   1  12
BRANCH   2  22
ATOM     22  O   UNL     1      -8.005   8.238  -6.390  1.00  0.00    -0.502 OA
ATOM     23  H   UNL     1      -9.005   8.256  -6.548  1.00  0.00     0.293 HD
ENDBRANCH   2  22
BRANCH   6  24
ATOM     24  O   UNL     1      -7.782   5.451  -1.856  1.00  0.00    -0.507 OA
ATOM     25  H   UNL     1      -8.763   5.655  -1.971  1.00  0.00     0.293 HD
ENDBRANCH   6  24
BRANCH   8  26
ATOM     26  O   UNL     1      -4.682   2.012  -3.126  1.00  0.00    -0.508 OA
ATOM     27  H   UNL     1      -4.074   1.994  -2.317  1.00  0.00     0.293 HD
ENDBRANCH   8  26
TORSDOF 6
ENDMDL
MODEL 2
REMARK VINA RESULT:    -5.780      0.640      1.457
REMARK INTER + INTRA:          -7.278
REMARK INTER:                  -7.028
REMARK INTRA:                  -0.250
REMARK UNBOUND:                -0.316
REMARK SMILES O=c1c(O)c(-c2ccc(O)c(O)c2)oc2cc(O)cc(O)c12
REMARK SMILES IDX 5 1 3 2 2 3 1 4 22 5 20 6 19 7 17 8 16 9 15 10 14 11 6 12
REMARK SMILES IDX 7 13 8 14 9 15 13 16 11 17 10 18 12 20 4 22 21 24 18 26
REMARK H PARENT 10 19 12 21 4 23 21 25 18 27
REMARK Flexibility Score: inf
ROOT
ATOM      1  C   UNL     1      -6.577   6.320  -7.032  1.00  0.00     0.180 A 
ATOM      2  C   UNL     1      -7.354   7.124  -6.180  1.00  0.00     0.208 A 
ATOM      3  C   UNL     1      -7.490   6.756  -4.832  1.00  0.00     0.238 A 
ATOM      4  O   UNL     1      -8.123   7.521  -4.059  1.00  0.00    -0.285 OA
ATOM      5  C   UNL     1      -6.895   5.559  -4.364  1.00  0.00     0.111 A 
ATOM      6  C   UNL     1      -7.005   5.065  -3.029  1.00  0.00     0.134 A 
ATOM      7  C   UNL     1      -6.284   3.924  -2.654  1.00  0.00     0.093 A 
ATOM      8  C   UNL     1      -5.510   3.223  -3.581  1.00  0.00     0.123 A 
ATOM      9  C   UNL     1      -5.441   3.666  -4.899  1.00  0.00     0.094 A 
ATOM     10  C   UNL     1      -6.116   4.823  -5.295  1.00  0.00     0.146 A 
ATOM     11  O   UNL     1      -6.005   5.220  -6.556  1.00  0.00    -0.452 OA
ENDROOT
BRANCH   1  12
ATOM     12  C   UNL     1      -6.375   6.650  -8.460  1.00  0.00     0.025 A 
ATOM     13  C   UNL     1      -7.051   5.952  -9.476  1.00  0.00     0.016 A 
ATOM     14  C   UNL     1      -6.863   6.299 -10.817  1.00  0.00     0.051 A 
ATOM     15  C   UNL     1      -6.009   7.354 -11.160  1.00  0.00     0.157 A 
ATOM     16  C   UNL     1      -5.536   7.721  -8.810  1.00  0.00     0.062 A 
ATOM     17  C   UNL     1      -5.347   8.069 -10.155  1.00  0.00     0.158 A 
BRANCH  15  18
ATOM     18  O   UNL     1      -5.817   7.701 -12.497  1.00  0.00    -0.504 OA
ATOM     19  H   UNL     1      -5.446   7.039 -13.169  1.00  0.00     0.293 HD
ENDBRANCH  15  18
BRANCH  17  20
ATOM     20  O   UNL     1      -4.502   9.123 -10.500  1.00  0.00    -0.504 OA
ATOM     21  H   UNL     1      -4.245   9.838  -9.828  1.00  0.00     0.293 HD
ENDBRANCH  17  20
ENDBRANCH   1  12
BRANCH   2  22
ATOM     22  O   UNL     1      -7.996   8.261  -6.678  1.00  0.00    -0.502 OA
ATOM     23  H   UNL     1      -7.944   8.532  -7.652  1.00  0.00     0.293 HD
ENDBRANCH   2  22
BRANCH   6  24
ATOM     24  O   UNL     1      -7.819   5.636  -2.047  1.00  0.00    -0.507 OA
ATOM     25  H   UNL     1      -7.662   5.563  -1.053  1.00  0.00     0.293 HD
ENDBRANCH   6  24
BRANCH   8  26
ATOM     26  O   UNL     1      -4.811   2.078  -3.202  1.00  0.00    -0.508 OA
ATOM     27  H   UNL     1      -4.416   1.982  -2.275  1.00  0.00     0.293 HD
ENDBRANCH   8  26
TORSDOF 6
ENDMDL
MODEL 3
REMARK VINA RESULT:    -5.768      1.386      2.914
REMARK INTER + INTRA:          -7.264
REMARK INTER:                  -6.961
REMARK INTRA:                  -0.302
REMARK UNBOUND:                -0.316
REMARK SMILES O=c1c(O)c(-c2ccc(O)c(O)c2)oc2cc(O)cc(O)c12
REMARK SMILES IDX 5 1 3 2 2 3 1 4 22 5 20 6 19 7 17 8 16 9 15 10 14 11 6 12
REMARK SMILES IDX 7 13 8 14 9 15 13 16 11 17 10 18 12 20 4 22 21 24 18 26
REMARK H PARENT 10 19 12 21 4 23 21 25 18 27
REMARK Flexibility Score: inf
ROOT
ATOM      1  C   UNL     1      -5.966   5.694  -6.441  1.00  0.00     0.180 A 
ATOM      2  C   UNL     1      -5.411   4.404  -6.393  1.00  0.00     0.208 A 
ATOM      3  C   UNL     1      -5.500   3.667  -5.201  1.00  0.00     0.238 A 
ATOM      4  O   UNL     1      -5.069   2.485  -5.190  1.00  0.00    -0.285 OA
ATOM      5  C   UNL     1      -6.092   4.250  -4.055  1.00  0.00     0.111 A 
ATOM      6  C   UNL     1      -6.196   3.612  -2.781  1.00  0.00     0.134 A 
ATOM      7  C   UNL     1      -6.898   4.246  -1.747  1.00  0.00     0.093 A 
ATOM      8  C   UNL     1      -7.443   5.520  -1.921  1.00  0.00     0.123 A 
ATOM      9  C   UNL     1      -7.298   6.172  -3.142  1.00  0.00     0.094 A 
ATOM     10  C   UNL     1      -6.639   5.551  -4.205  1.00  0.00     0.146 A 
ATOM     11  O   UNL     1      -6.543   6.202  -5.358  1.00  0.00    -0.452 OA
ENDROOT
BRANCH   1  12
ATOM     12  C   UNL     1      -5.925   6.526  -7.664  1.00  0.00     0.025 A 
ATOM     13  C   UNL     1      -4.773   7.249  -8.020  1.00  0.00     0.016 A 
ATOM     14  C   UNL     1      -4.750   8.008  -9.193  1.00  0.00     0.051 A 
ATOM     15  C   UNL     1      -5.870   8.044 -10.033  1.00  0.00     0.157 A 
ATOM     16  C   UNL     1      -7.037   6.549  -8.522  1.00  0.00     0.062 A 
ATOM     17  C   UNL     1      -7.014   7.310  -9.699  1.00  0.00     0.158 A 
BRANCH  15  18
ATOM     18  O   UNL     1      -5.850   8.802 -11.204  1.00  0.00    -0.504 OA
ATOM     19  H   UNL     1      -5.450   9.732 -11.226  1.00  0.00     0.293 HD
ENDBRANCH  15  18
BRANCH  17  20
ATOM     20  O   UNL     1      -8.125   7.343 -10.541  1.00  0.00    -0.504 OA
ATOM     21  H   UNL     1      -8.369   8.176 -11.064  1.00  0.00     0.293 HD
ENDBRANCH  17  20
ENDBRANCH   1  12
BRANCH   2  22
ATOM     22  O   UNL     1      -4.764   3.875  -7.513  1.00  0.00    -0.502 OA
ATOM     23  H   UNL     1      -4.882   2.913  -7.806  1.00  0.00     0.293 HD
ENDBRANCH   2  22
BRANCH   6  24
ATOM     24  O   UNL     1      -5.613   2.380  -2.472  1.00  0.00    -0.507 OA
ATOM     25  H   UNL     1      -5.465   2.029  -1.538  1.00  0.00     0.293 HD
ENDBRANCH   6  24
BRANCH   8  26
ATOM     26  O   UNL     1      -8.124   6.149  -0.880  1.00  0.00    -0.508 OA
ATOM     27  H   UNL     1      -8.630   7.014  -1.025  1.00  0.00     0.293 HD
ENDBRANCH   8  26
TORSDOF 6
ENDMDL
MODEL 4
REMARK VINA RESULT:    -5.627     14.508     15.896
REMARK INTER + INTRA:          -7.094
REMARK INTER:                  -6.785
REMARK INTRA:                  -0.309
REMARK UNBOUND:                -0.316
REMARK SMILES O=c1c(O)c(-c2ccc(O)c(O)c2)oc2cc(O)cc(O)c12
REMARK SMILES IDX 5 1 3 2 2 3 1 4 22 5 20 6 19 7 17 8 16 9 15 10 14 11 6 12
REMARK SMILES IDX 7 13 8 14 9 15 13 16 11 17 10 18 12 20 4 22 21 24 18 26
REMARK H PARENT 10 19 12 21 4 23 21 25 18 27
REMARK Flexibility Score: inf
ROOT
ATOM      1  C   UNL     1      -4.224  -8.246 -13.079  1.00  0.00     0.180 A 
ATOM      2  C   UNL     1      -4.857  -6.996 -13.187  1.00  0.00     0.208 A 
ATOM      3  C   UNL     1      -5.598  -6.511 -12.098  1.00  0.00     0.238 A 
ATOM      4  O   UNL     1      -6.099  -5.359 -12.175  1.00  0.00    -0.285 OA
ATOM      5  C   UNL     1      -5.744  -7.305 -10.935  1.00  0.00     0.111 A 
ATOM      6  C   UNL     1      -6.510  -6.933  -9.788  1.00  0.00     0.134 A 
ATOM      7  C   UNL     1      -6.495  -7.753  -8.653  1.00  0.00     0.093 A 
ATOM      8  C   UNL     1      -5.796  -8.962  -8.646  1.00  0.00     0.123 A 
ATOM      9  C   UNL     1      -5.092  -9.359  -9.778  1.00  0.00     0.094 A 
ATOM     10  C   UNL     1      -5.054  -8.545 -10.913  1.00  0.00     0.146 A 
ATOM     11  O   UNL     1      -4.353  -8.954 -11.963  1.00  0.00    -0.452 OA
ENDROOT
BRANCH   1  12
ATOM     12  C   UNL     1      -3.414  -8.818 -14.178  1.00  0.00     0.025 A 
ATOM     13  C   UNL     1      -3.968  -9.715 -15.107  1.00  0.00     0.016 A 
ATOM     14  C   UNL     1      -3.190 -10.222 -16.151  1.00  0.00     0.051 A 
ATOM     15  C   UNL     1      -1.852  -9.831 -16.288  1.00  0.00     0.157 A 
ATOM     16  C   UNL     1      -2.077  -8.413 -14.333  1.00  0.00     0.062 A 
ATOM     17  C   UNL     1      -1.296  -8.922 -15.381  1.00  0.00     0.158 A 
BRANCH  15  18
ATOM     18  O   UNL     1      -1.072 -10.337 -17.328  1.00  0.00    -0.504 OA
ATOM     19  H   UNL     1      -0.061 -10.261 -17.317  1.00  0.00     0.293 HD
ENDBRANCH  15  18
BRANCH  17  20
ATOM     20  O   UNL     1       0.034  -8.530 -15.524  1.00  0.00    -0.504 OA
ATOM     21  H   UNL     1       0.766  -8.914 -14.937  1.00  0.00     0.293 HD
ENDBRANCH  17  20
ENDBRANCH   1  12
BRANCH   2  22
ATOM     22  O   UNL     1      -4.764  -6.261 -14.372  1.00  0.00    -0.502 OA
ATOM     23  H   UNL     1      -4.811  -6.694 -15.286  1.00  0.00     0.293 HD
ENDBRANCH   2  22
BRANCH   6  24
ATOM     24  O   UNL     1      -7.315  -5.792  -9.720  1.00  0.00    -0.507 OA
ATOM     25  H   UNL     1      -7.001  -4.881  -9.424  1.00  0.00     0.293 HD
ENDBRANCH   6  24
BRANCH   8  26
ATOM     26  O   UNL     1      -5.802  -9.779  -7.517  1.00  0.00    -0.508 OA
ATOM     27  H   UNL     1      -6.613 -10.332  -7.268  1.00  0.00     0.293 HD
ENDBRANCH   8  26
TORSDOF 6
ENDMDL
MODEL 5
REMARK VINA RESULT:    -5.522     14.746     16.328
REMARK INTER + INTRA:          -6.968
REMARK INTER:                  -6.663
REMARK INTRA:                  -0.305
REMARK UNBOUND:                -0.316
REMARK SMILES O=c1c(O)c(-c2ccc(O)c(O)c2)oc2cc(O)cc(O)c12
REMARK SMILES IDX 5 1 3 2 2 3 1 4 22 5 20 6 19 7 17 8 16 9 15 10 14 11 6 12
REMARK SMILES IDX 7 13 8 14 9 15 13 16 11 17 10 18 12 20 4 22 21 24 18 26
REMARK H PARENT 10 19 12 21 4 23 21 25 18 27
REMARK Flexibility Score: inf
ROOT
ATOM      1  C   UNL     1      -4.045  -8.718 -13.285  1.00  0.00     0.180 A 
ATOM      2  C   UNL     1      -4.189  -9.848 -12.462  1.00  0.00     0.208 A 
ATOM      3  C   UNL     1      -4.938  -9.739 -11.280  1.00  0.00     0.238 A 
ATOM      4  O   UNL     1      -5.126 -10.772 -10.587  1.00  0.00    -0.285 OA
ATOM      5  C   UNL     1      -5.487  -8.488 -10.905  1.00  0.00     0.111 A 
ATOM      6  C   UNL     1      -6.225  -8.251  -9.706  1.00  0.00     0.134 A 
ATOM      7  C   UNL     1      -6.811  -6.997  -9.493  1.00  0.00     0.093 A 
ATOM      8  C   UNL     1      -6.631  -5.953 -10.404  1.00  0.00     0.123 A 
ATOM      9  C   UNL     1      -5.867  -6.159 -11.549  1.00  0.00     0.094 A 
ATOM     10  C   UNL     1      -5.302  -7.409 -11.810  1.00  0.00     0.146 A 
ATOM     11  O   UNL     1      -4.598  -7.567 -12.924  1.00  0.00    -0.452 OA
ENDROOT
BRANCH   1  12
ATOM     12  C   UNL     1      -3.283  -8.759 -14.554  1.00  0.00     0.025 A 
ATOM     13  C   UNL     1      -3.933  -8.876 -15.795  1.00  0.00     0.016 A 
ATOM     14  C   UNL     1      -3.193  -8.887 -16.981  1.00  0.00     0.051 A 
ATOM     15  C   UNL     1      -1.798  -8.768 -16.944  1.00  0.00     0.157 A 
ATOM     16  C   UNL     1      -1.885  -8.618 -14.525  1.00  0.00     0.062 A 
ATOM     17  C   UNL     1      -1.143  -8.630 -15.714  1.00  0.00     0.158 A 
BRANCH  15  18
ATOM     18  O   UNL     1      -1.057  -8.780 -18.125  1.00  0.00    -0.504 OA
ATOM     19  H   UNL     1      -0.819  -7.923 -18.610  1.00  0.00     0.293 HD
ENDBRANCH  15  18
BRANCH  17  20
ATOM     20  O   UNL     1       0.245  -8.505 -15.681  1.00  0.00    -0.504 OA
ATOM     21  H   UNL     1       0.729  -8.191 -14.848  1.00  0.00     0.293 HD
ENDBRANCH  17  20
ENDBRANCH   1  12
BRANCH   2  22
ATOM     22  O   UNL     1      -3.576 -11.055 -12.810  1.00  0.00    -0.502 OA
ATOM     23  H   UNL     1      -4.086 -11.823 -13.228  1.00  0.00     0.293 HD
ENDBRANCH   2  22
BRANCH   6  24
ATOM     24  O   UNL     1      -6.392  -9.195  -8.689  1.00  0.00    -0.507 OA
ATOM     25  H   UNL     1      -6.847  -9.019  -7.806  1.00  0.00     0.293 HD
ENDBRANCH   6  24
BRANCH   8  26
ATOM     26  O   UNL     1      -7.204  -4.703 -10.174  1.00  0.00    -0.508 OA
ATOM     27  H   UNL     1      -6.682  -3.954  -9.735  1.00  0.00     0.293 HD
ENDBRANCH   8  26
TORSDOF 6
ENDMDL
MODEL 6
REMARK VINA RESULT:    -5.365     13.678     15.402
REMARK INTER + INTRA:          -6.778
REMARK INTER:                  -6.462
REMARK INTRA:                  -0.317
REMARK UNBOUND:                -0.316
REMARK SMILES O=c1c(O)c(-c2ccc(O)c(O)c2)oc2cc(O)cc(O)c12
REMARK SMILES IDX 5 1 3 2 2 3 1 4 22 5 20 6 19 7 17 8 16 9 15 10 14 11 6 12
REMARK SMILES IDX 7 13 8 14 9 15 13 16 11 17 10 18 12 20 4 22 21 24 18 26
REMARK H PARENT 10 19 12 21 4 23 21 25 18 27
REMARK Flexibility Score: inf
ROOT
ATOM      1  C   UNL     1      -6.314  -8.937  -3.288  1.00  0.00     0.180 A 
ATOM      2  C   UNL     1      -6.867  -9.642  -2.205  1.00  0.00     0.208 A 
ATOM      3  C   UNL     1      -6.557  -9.234  -0.898  1.00  0.00     0.238 A 
ATOM      4  O   UNL     1      -7.115  -9.821   0.065  1.00  0.00    -0.285 OA
ATOM      5  C   UNL     1      -5.655  -8.163  -0.688  1.00  0.00     0.111 A 
ATOM      6  C   UNL     1      -5.234  -7.694   0.593  1.00  0.00     0.134 A 
ATOM      7  C   UNL     1      -4.420  -6.557   0.679  1.00  0.00     0.093 A 
ATOM      8  C   UNL     1      -3.959  -5.912  -0.471  1.00  0.00     0.123 A 
ATOM      9  C   UNL     1      -4.319  -6.396  -1.726  1.00  0.00     0.094 A 
ATOM     10  C   UNL     1      -5.162  -7.503  -1.845  1.00  0.00     0.146 A 
ATOM     11  O   UNL     1      -5.496  -7.917  -3.060  1.00  0.00    -0.452 OA
ENDROOT
BRANCH   1  12
ATOM     12  C   UNL     1      -6.605  -9.298  -4.694  1.00  0.00     0.025 A 
ATOM     13  C   UNL     1      -7.779  -8.864  -5.334  1.00  0.00     0.016 A 
ATOM     14  C   UNL     1      -8.020  -9.197  -6.671  1.00  0.00     0.051 A 
ATOM     15  C   UNL     1      -7.087  -9.956  -7.388  1.00  0.00     0.157 A 
ATOM     16  C   UNL     1      -5.663 -10.041  -5.426  1.00  0.00     0.062 A 
ATOM     17  C   UNL     1      -5.905 -10.375  -6.766  1.00  0.00     0.158 A 
BRANCH  15  18
ATOM     18  O   UNL     1      -7.324 -10.291  -8.720  1.00  0.00    -0.504 OA
ATOM     19  H   UNL     1      -8.206 -10.076  -9.172  1.00  0.00     0.293 HD
ENDBRANCH  15  18
BRANCH  17  20
ATOM     20  O   UNL     1      -4.975 -11.125  -7.485  1.00  0.00    -0.504 OA
ATOM     21  H   UNL     1      -4.947 -12.136  -7.422  1.00  0.00     0.293 HD
ENDBRANCH  17  20
ENDBRANCH   1  12
BRANCH   2  22
ATOM     22  O   UNL     1      -7.695 -10.744  -2.432  1.00  0.00    -0.502 OA
ATOM     23  H   UNL     1      -8.518 -10.930  -1.872  1.00  0.00     0.293 HD
ENDBRANCH   2  22
BRANCH   6  24
ATOM     24  O   UNL     1      -5.563  -8.315   1.801  1.00  0.00    -0.507 OA
ATOM     25  H   UNL     1      -6.422  -8.812   1.980  1.00  0.00     0.293 HD
ENDBRANCH   6  24
BRANCH   8  26
ATOM     26  O   UNL     1      -3.135  -4.793  -0.375  1.00  0.00    -0.508 OA
ATOM     27  H   UNL     1      -3.216  -4.140   0.395  1.00  0.00     0.293 HD
ENDBRANCH   8  26
TORSDOF 6
ENDMDL
MODEL 7
REMARK VINA RESULT:    -5.342     15.444     17.956
REMARK INTER + INTRA:          -6.751
REMARK INTER:                  -6.419
REMARK INTRA:                  -0.331
REMARK UNBOUND:                -0.316
REMARK SMILES O=c1c(O)c(-c2ccc(O)c(O)c2)oc2cc(O)cc(O)c12
REMARK SMILES IDX 5 1 3 2 2 3 1 4 22 5 20 6 19 7 17 8 16 9 15 10 14 11 6 12
REMARK SMILES IDX 7 13 8 14 9 15 13 16 11 17 10 18 12 20 4 22 21 24 18 26
REMARK H PARENT 10 19 12 21 4 23 21 25 18 27
REMARK Flexibility Score: inf
ROOT
ATOM      1  C   UNL     1      -4.187  -9.182 -13.144  1.00  0.00     0.180 A 
ATOM      2  C   UNL     1      -5.064  -8.992 -14.225  1.00  0.00     0.208 A 
ATOM      3  C   UNL     1      -4.531  -8.806 -15.511  1.00  0.00     0.238 A 
ATOM      4  O   UNL     1      -5.323  -8.713 -16.484  1.00  0.00    -0.285 OA
ATOM      5  C   UNL     1      -3.127  -8.755 -15.692  1.00  0.00     0.111 A 
ATOM      6  C   UNL     1      -2.477  -8.527 -16.942  1.00  0.00     0.134 A 
ATOM      7  C   UNL     1      -1.080  -8.604 -17.018  1.00  0.00     0.093 A 
ATOM      8  C   UNL     1      -0.308  -8.836 -15.877  1.00  0.00     0.123 A 
ATOM      9  C   UNL     1      -0.931  -9.005 -14.644  1.00  0.00     0.094 A 
ATOM     10  C   UNL     1      -2.323  -8.974 -14.542  1.00  0.00     0.146 A 
ATOM     11  O   UNL     1      -2.875  -9.161 -13.350  1.00  0.00    -0.452 OA
ENDROOT
BRANCH   1  12
ATOM     12  C   UNL     1      -4.673  -9.398 -11.763  1.00  0.00     0.025 A 
ATOM     13  C   UNL     1      -4.924 -10.690 -11.268  1.00  0.00     0.016 A 
ATOM     14  C   UNL     1      -5.359 -10.871  -9.952  1.00  0.00     0.051 A 
ATOM     15  C   UNL     1      -5.537  -9.767  -9.110  1.00  0.00     0.157 A 
ATOM     16  C   UNL     1      -4.833  -8.296 -10.906  1.00  0.00     0.062 A 
ATOM     17  C   UNL     1      -5.270  -8.478  -9.586  1.00  0.00     0.158 A 
BRANCH  15  18
ATOM     18  O   UNL     1      -5.973  -9.943  -7.797  1.00  0.00    -0.504 OA
ATOM     19  H   UNL     1      -5.335  -9.866  -7.013  1.00  0.00     0.293 HD
ENDBRANCH  15  18
BRANCH  17  20
ATOM     20  O   UNL     1      -5.442  -7.381  -8.743  1.00  0.00    -0.504 OA
ATOM     21  H   UNL     1      -6.337  -7.179  -8.311  1.00  0.00     0.293 HD
ENDBRANCH  17  20
ENDBRANCH   1  12
BRANCH   2  22
ATOM     22  O   UNL     1      -6.445  -8.970 -14.015  1.00  0.00    -0.502 OA
ATOM     23  H   UNL     1      -6.917  -9.645 -13.425  1.00  0.00     0.293 HD
ENDBRANCH   2  22
BRANCH   6  24
ATOM     24  O   UNL     1      -3.146  -8.199 -18.125  1.00  0.00    -0.507 OA
ATOM     25  H   UNL     1      -3.421  -7.267 -18.393  1.00  0.00     0.293 HD
ENDBRANCH   6  24
BRANCH   8  26
ATOM     26  O   UNL     1       1.082  -8.893 -15.961  1.00  0.00    -0.508 OA
ATOM     27  H   UNL     1       1.577  -8.576 -16.786  1.00  0.00     0.293 HD
ENDBRANCH   8  26
TORSDOF 6
ENDMDL
MODEL 8
REMARK VINA RESULT:    -5.326      1.066      1.294
REMARK INTER + INTRA:          -6.731
REMARK INTER:                  -6.500
REMARK INTRA:                  -0.232
REMARK UNBOUND:                -0.316
REMARK SMILES O=c1c(O)c(-c2ccc(O)c(O)c2)oc2cc(O)cc(O)c12
REMARK SMILES IDX 5 1 3 2 2 3 1 4 22 5 20 6 19 7 17 8 16 9 15 10 14 11 6 12
REMARK SMILES IDX 7 13 8 14 9 15 13 16 11 17 10 18 12 20 4 22 21 24 18 26
REMARK H PARENT 10 19 12 21 4 23 21 25 18 27
REMARK Flexibility Score: inf
ROOT
ATOM      1  C   UNL     1      -6.553   6.857  -7.926  1.00  0.00     0.180 A 
ATOM      2  C   UNL     1      -7.189   7.791  -7.090  1.00  0.00     0.208 A 
ATOM      3  C   UNL     1      -7.244   7.543  -5.709  1.00  0.00     0.238 A 
ATOM      4  O   UNL     1      -7.747   8.420  -4.959  1.00  0.00    -0.285 OA
ATOM      5  C   UNL     1      -6.713   6.339  -5.187  1.00  0.00     0.111 A 
ATOM      6  C   UNL     1      -6.754   5.962  -3.810  1.00  0.00     0.134 A 
ATOM      7  C   UNL     1      -6.102   4.794  -3.395  1.00  0.00     0.093 A 
ATOM      8  C   UNL     1      -5.467   3.957  -4.314  1.00  0.00     0.123 A 
ATOM      9  C   UNL     1      -5.470   4.287  -5.666  1.00  0.00     0.094 A 
ATOM     10  C   UNL     1      -6.077   5.465  -6.108  1.00  0.00     0.146 A 
ATOM     11  O   UNL     1      -6.037   5.752  -7.403  1.00  0.00    -0.452 OA
ENDROOT
BRANCH   1  12
ATOM     12  C   UNL     1      -6.442   7.055  -9.388  1.00  0.00     0.025 A 
ATOM     13  C   UNL     1      -5.613   8.052  -9.933  1.00  0.00     0.016 A 
ATOM     14  C   UNL     1      -5.506   8.203 -11.318  1.00  0.00     0.051 A 
ATOM     15  C   UNL     1      -6.215   7.354 -12.178  1.00  0.00     0.157 A 
ATOM     16  C   UNL     1      -7.134   6.193 -10.257  1.00  0.00     0.062 A 
ATOM     17  C   UNL     1      -7.027   6.345 -11.647  1.00  0.00     0.158 A 
BRANCH  15  18
ATOM     18  O   UNL     1      -6.111   7.504 -13.560  1.00  0.00    -0.504 OA
ATOM     19  H   UNL     1      -5.233   7.361 -14.044  1.00  0.00     0.293 HD
ENDBRANCH  15  18
BRANCH  17  20
ATOM     20  O   UNL     1      -7.725   5.498 -12.505  1.00  0.00    -0.504 OA
ATOM     21  H   UNL     1      -7.527   4.504 -12.546  1.00  0.00     0.293 HD
ENDBRANCH  17  20
ENDBRANCH   1  12
BRANCH   2  22
ATOM     22  O   UNL     1      -7.773   8.938  -7.634  1.00  0.00    -0.502 OA
ATOM     23  H   UNL     1      -8.370   8.910  -8.451  1.00  0.00     0.293 HD
ENDBRANCH   2  22
BRANCH   6  24
ATOM     24  O   UNL     1      -7.435   6.679  -2.822  1.00  0.00    -0.507 OA
ATOM     25  H   UNL     1      -8.344   6.438  -2.457  1.00  0.00     0.293 HD
ENDBRANCH   6  24
BRANCH   8  26
ATOM     26  O   UNL     1      -4.836   2.788  -3.893  1.00  0.00    -0.508 OA
ATOM     27  H   UNL     1      -4.569   2.649  -2.926  1.00  0.00     0.293 HD
ENDBRANCH   8  26
TORSDOF 6
ENDMDL
MODEL 9
REMARK VINA RESULT:    -5.208     15.267     17.335
REMARK INTER + INTRA:          -6.589
REMARK INTER:                  -6.266
REMARK INTRA:                  -0.323
REMARK UNBOUND:                -0.316
REMARK SMILES O=c1c(O)c(-c2ccc(O)c(O)c2)oc2cc(O)cc(O)c12
REMARK SMILES IDX 5 1 3 2 2 3 1 4 22 5 20 6 19 7 17 8 16 9 15 10 14 11 6 12
REMARK SMILES IDX 7 13 8 14 9 15 13 16 11 17 10 18 12 20 4 22 21 24 18 26
REMARK H PARENT 10 19 12 21 4 23 21 25 18 27
REMARK Flexibility Score: inf
ROOT
ATOM      1  C   UNL     1      -4.443  -7.998 -13.963  1.00  0.00     0.180 A 
ATOM      2  C   UNL     1      -5.190  -8.935 -14.697  1.00  0.00     0.208 A 
ATOM      3  C   UNL     1      -4.539  -9.722 -15.660  1.00  0.00     0.238 A 
ATOM      4  O   UNL     1      -5.198 -10.611 -16.259  1.00  0.00    -0.285 OA
ATOM      5  C   UNL     1      -3.160  -9.525 -15.917  1.00  0.00     0.111 A 
ATOM      6  C   UNL     1      -2.407 -10.234 -16.902  1.00  0.00     0.134 A 
ATOM      7  C   UNL     1      -1.025 -10.029 -16.993  1.00  0.00     0.093 A 
ATOM      8  C   UNL     1      -0.379  -9.093 -16.181  1.00  0.00     0.123 A 
ATOM      9  C   UNL     1      -1.114  -8.357 -15.257  1.00  0.00     0.094 A 
ATOM     10  C   UNL     1      -2.488  -8.567 -15.113  1.00  0.00     0.146 A 
ATOM     11  O   UNL     1      -3.145  -7.858 -14.204  1.00  0.00    -0.452 OA
ENDROOT
BRANCH   1  12
ATOM     12  C   UNL     1      -5.056  -7.143 -12.922  1.00  0.00     0.025 A 
ATOM     13  C   UNL     1      -5.637  -5.903 -13.240  1.00  0.00     0.016 A 
ATOM     14  C   UNL     1      -6.231  -5.124 -12.243  1.00  0.00     0.051 A 
ATOM     15  C   UNL     1      -6.265  -5.578 -10.919  1.00  0.00     0.157 A 
ATOM     16  C   UNL     1      -5.112  -7.602 -11.595  1.00  0.00     0.062 A 
ATOM     17  C   UNL     1      -5.709  -6.821 -10.595  1.00  0.00     0.158 A 
BRANCH  15  18
ATOM     18  O   UNL     1      -6.856  -4.803  -9.922  1.00  0.00    -0.504 OA
ATOM     19  H   UNL     1      -6.627  -4.935  -8.943  1.00  0.00     0.293 HD
ENDBRANCH  15  18
BRANCH  17  20
ATOM     20  O   UNL     1      -5.750  -7.273  -9.277  1.00  0.00    -0.504 OA
ATOM     21  H   UNL     1      -5.290  -6.768  -8.528  1.00  0.00     0.293 HD
ENDBRANCH  17  20
ENDBRANCH   1  12
BRANCH   2  22
ATOM     22  O   UNL     1      -6.565  -9.062 -14.482  1.00  0.00    -0.502 OA
ATOM     23  H   UNL     1      -7.247  -8.913 -15.215  1.00  0.00     0.293 HD
ENDBRANCH   2  22
BRANCH   6  24
ATOM     24  O   UNL     1      -2.966 -11.125 -17.823  1.00  0.00    -0.507 OA
ATOM     25  H   UNL     1      -2.592 -12.035 -18.046  1.00  0.00     0.293 HD
ENDBRANCH   6  24
BRANCH   8  26
ATOM     26  O   UNL     1       0.994  -8.884 -16.293  1.00  0.00    -0.508 OA
ATOM     27  H   UNL     1       1.450  -8.104 -15.835  1.00  0.00     0.293 HD
ENDBRANCH   8  26
TORSDOF 6
ENDMDL
