MODEL 1
REMARK VINA RESULT:    16.130      0.000      0.000
REMARK INTER + INTRA:          19.014
REMARK INTER:                  19.430
REMARK INTRA:                  -0.416
REMARK UNBOUND:                -0.416
REMARK SMILES O=c1c(O)c(-c2ccc(O)cc2O)oc2cc(O)cc(O)c12
REMARK SMILES IDX 5 1 3 2 2 3 1 4 22 5 20 6 19 7 17 8 16 9 15 10 14 11 6 12
REMARK SMILES IDX 8 13 7 14 9 15 11 16 12 17 10 18 13 20 4 22 21 24 18 26
REMARK H PARENT 10 19 13 21 4 23 21 25 18 27
REMARK Flexibility Score: inf
ROOT
ATOM      1  C   UNL     1      42.778  -3.979  23.573  1.00  0.00     0.184 A 
ATOM      2  C   UNL     1      43.034  -2.667  23.139  1.00  0.00     0.208 A 
ATOM      3  C   UNL     1      41.953  -1.843  22.788  1.00  0.00     0.238 A 
ATOM      4  O   UNL     1      42.193  -0.689  22.347  1.00  0.00    -0.285 OA
ATOM      5  C   UNL     1      40.629  -2.334  22.894  1.00  0.00     0.111 A 
ATOM      6  C   UNL     1      39.458  -1.574  22.603  1.00  0.00     0.134 A 
ATOM      7  C   UNL     1      38.205  -2.201  22.619  1.00  0.00     0.093 A 
ATOM      8  C   UNL     1      38.077  -3.542  22.979  1.00  0.00     0.123 A 
ATOM      9  C   UNL     1      39.211  -4.279  23.323  1.00  0.00     0.094 A 
ATOM     10  C   UNL     1      40.476  -3.691  23.281  1.00  0.00     0.146 A 
ATOM     11  O   UNL     1      41.531  -4.431  23.604  1.00  0.00    -0.451 OA
ENDROOT
BRANCH   1  12
ATOM     12  C   UNL     1      43.870  -4.893  23.982  1.00  0.00     0.063 A 
ATOM     13  C   UNL     1      45.687  -5.465  25.497  1.00  0.00     0.047 A 
ATOM     14  C   UNL     1      44.675  -4.590  25.094  1.00  0.00     0.020 A 
ATOM     15  C   UNL     1      45.901  -6.660  24.802  1.00  0.00     0.119 A 
ATOM     16  C   UNL     1      45.098  -6.977  23.704  1.00  0.00     0.093 A 
ATOM     17  C   UNL     1      44.081  -6.104  23.290  1.00  0.00     0.130 A 
BRANCH  15  18
ATOM     18  O   UNL     1      46.907  -7.541  25.196  1.00  0.00    -0.508 OA
ATOM     19  H   UNL     1      46.694  -8.476  25.522  1.00  0.00     0.293 HD
ENDBRANCH  15  18
BRANCH  17  20
ATOM     20  O   UNL     1      43.291  -6.430  22.188  1.00  0.00    -0.507 OA
ATOM     21  H   UNL     1      43.349  -5.910  21.320  1.00  0.00     0.293 HD
ENDBRANCH  17  20
ENDBRANCH   1  12
BRANCH   2  22
ATOM     22  O   UNL     1      44.351  -2.209  23.030  1.00  0.00    -0.502 OA
ATOM     23  H   UNL     1      45.016  -2.618  22.385  1.00  0.00     0.293 HD
ENDBRANCH   2  22
BRANCH   6  24
ATOM     24  O   UNL     1      39.465  -0.205  22.321  1.00  0.00    -0.507 OA
ATOM     25  H   UNL     1      39.802   0.204  21.462  1.00  0.00     0.293 HD
ENDBRANCH   6  24
BRANCH   8  26
ATOM     26  O   UNL     1      36.813  -4.130  23.001  1.00  0.00    -0.508 OA
ATOM     27  H   UNL     1      36.686  -5.102  23.254  1.00  0.00     0.293 HD
ENDBRANCH   8  26
TORSDOF 6
ENDMDL
MODEL 2
REMARK VINA RESULT:    16.821      1.512      6.542
REMARK INTER + INTRA:          19.847
REMARK INTER:                  20.290
REMARK INTRA:                  -0.444
REMARK UNBOUND:                -0.416
REMARK SMILES O=c1c(O)c(-c2ccc(O)cc2O)oc2cc(O)cc(O)c12
REMARK SMILES IDX 5 1 3 2 2 3 1 4 22 5 20 6 19 7 17 8 16 9 15 10 14 11 6 12
REMARK SMILES IDX 8 13 7 14 9 15 11 16 12 17 10 18 13 20 4 22 21 24 18 26
REMARK H PARENT 10 19 13 21 4 23 21 25 18 27
REMARK Flexibility Score: inf
ROOT
ATOM      1  C   UNL     1      39.804  -3.273  22.906  1.00  0.00     0.184 A 
ATOM      2  C   UNL     1      40.281  -1.954  22.999  1.00  0.00     0.208 A 
ATOM      3  C   UNL     1      41.651  -1.740  23.214  1.00  0.00     0.238 A 
ATOM      4  O   UNL     1      42.063  -0.558  23.353  1.00  0.00    -0.285 OA
ATOM      5  C   UNL     1      42.530  -2.845  23.313  1.00  0.00     0.111 A 
ATOM      6  C   UNL     1      43.942  -2.744  23.492  1.00  0.00     0.134 A 
ATOM      7  C   UNL     1      44.697  -3.905  23.705  1.00  0.00     0.093 A 
ATOM      8  C   UNL     1      44.100  -5.165  23.682  1.00  0.00     0.123 A 
ATOM      9  C   UNL     1      42.729  -5.279  23.450  1.00  0.00     0.094 A 
ATOM     10  C   UNL     1      41.945  -4.138  23.270  1.00  0.00     0.146 A 
ATOM     11  O   UNL     1      40.642  -4.289  23.063  1.00  0.00    -0.451 OA
ENDROOT
BRANCH   1  12
ATOM     12  C   UNL     1      38.374  -3.570  22.655  1.00  0.00     0.063 A 
ATOM     13  C   UNL     1      36.440  -3.542  21.176  1.00  0.00     0.047 A 
ATOM     14  C   UNL     1      37.781  -3.237  21.424  1.00  0.00     0.020 A 
ATOM     15  C   UNL     1      35.676  -4.194  22.151  1.00  0.00     0.119 A 
ATOM     16  C   UNL     1      36.259  -4.541  23.372  1.00  0.00     0.093 A 
ATOM     17  C   UNL     1      37.604  -4.237  23.631  1.00  0.00     0.130 A 
BRANCH  15  18
ATOM     18  O   UNL     1      34.338  -4.503  21.914  1.00  0.00    -0.508 OA
ATOM     19  H   UNL     1      33.607  -3.810  22.023  1.00  0.00     0.293 HD
ENDBRANCH  15  18
BRANCH  17  20
ATOM     20  O   UNL     1      38.171  -4.584  24.857  1.00  0.00    -0.507 OA
ATOM     21  H   UNL     1      38.783  -5.386  24.951  1.00  0.00     0.293 HD
ENDBRANCH  17  20
ENDBRANCH   1  12
BRANCH   2  22
ATOM     22  O   UNL     1      39.391  -0.879  22.911  1.00  0.00    -0.502 OA
ATOM     23  H   UNL     1      39.008  -0.423  23.730  1.00  0.00     0.293 HD
ENDBRANCH   2  22
BRANCH   6  24
ATOM     24  O   UNL     1      44.652  -1.541  23.440  1.00  0.00    -0.507 OA
ATOM     25  H   UNL     1      45.447  -1.367  22.846  1.00  0.00     0.293 HD
ENDBRANCH   6  24
BRANCH   8  26
ATOM     26  O   UNL     1      44.884  -6.300  23.883  1.00  0.00    -0.508 OA
ATOM     27  H   UNL     1      45.896  -6.255  23.860  1.00  0.00     0.293 HD
ENDBRANCH   8  26
TORSDOF 6
ENDMDL
