MODEL 1
REMARK VINA RESULT:    -4.242      0.000      0.000
REMARK INTER + INTRA:          -5.004
REMARK INTER:                  -4.862
REMARK INTRA:                  -0.141
REMARK UNBOUND:                -0.141
REMARK SMILES O=C([O-])C=Cc1ccc(O)cc1
REMARK SMILES IDX 6 1 7 2 12 3 8 4 11 5 9 6 5 7 4 8 2 9 1 10 3 11 10 12
REMARK H PARENT 10 13
REMARK Flexibility Score: inf
ROOT
ATOM      1  C   UNL     1     -22.412  24.861  11.142  1.00  0.00    -0.025 A 
ATOM      2  C   UNL     1     -23.003  26.127  10.955  1.00  0.00     0.012 A 
ATOM      3  C   UNL     1     -21.943  24.159  10.017  1.00  0.00     0.012 A 
ATOM      4  C   UNL     1     -23.140  26.661   9.669  1.00  0.00     0.047 A 
ATOM      5  C   UNL     1     -22.082  24.696   8.734  1.00  0.00     0.047 A 
ATOM      6  C   UNL     1     -22.682  25.945   8.556  1.00  0.00     0.115 A 
ENDROOT
BRANCH   1   7
ATOM      7  C   UNL     1     -22.231  24.254  12.484  1.00  0.00     0.010 C 
ATOM      8  C   UNL     1     -21.038  23.943  13.006  1.00  0.00     0.025 C 
BRANCH   8   9
ATOM      9  C   UNL     1     -20.906  23.352  14.348  1.00  0.00     0.064 C 
ATOM     10  O   UNL     1     -19.799  22.875  14.711  1.00  0.00    -0.545 OA
ATOM     11  O   UNL     1     -21.985  23.310  15.223  1.00  0.00    -0.545 OA
ENDBRANCH   8   9
ENDBRANCH   1   7
BRANCH   6  12
ATOM     12  O   UNL     1     -22.815  26.467   7.271  1.00  0.00    -0.508 OA
ATOM     13  H   UNL     1     -22.158  27.147   6.905  1.00  0.00     0.293 HD
ENDBRANCH   6  12
TORSDOF 3
ENDMDL
MODEL 2
REMARK VINA RESULT:    -4.028      1.655      5.874
REMARK INTER + INTRA:          -4.757
REMARK INTER:                  -4.620
REMARK INTRA:                  -0.137
REMARK UNBOUND:                -0.141
REMARK SMILES O=C([O-])C=Cc1ccc(O)cc1
REMARK SMILES IDX 6 1 7 2 12 3 8 4 11 5 9 6 5 7 4 8 2 9 1 10 3 11 10 12
REMARK H PARENT 10 13
REMARK Flexibility Score: inf
ROOT
ATOM      1  C   UNL     1     -21.468  23.600  12.862  1.00  0.00    -0.025 A 
ATOM      2  C   UNL     1     -22.371  23.243  13.883  1.00  0.00     0.012 A 
ATOM      3  C   UNL     1     -20.160  23.977  13.214  1.00  0.00     0.012 A 
ATOM      4  C   UNL     1     -21.976  23.289  15.225  1.00  0.00     0.047 A 
ATOM      5  C   UNL     1     -19.770  24.022  14.556  1.00  0.00     0.047 A 
ATOM      6  C   UNL     1     -20.676  23.681  15.564  1.00  0.00     0.115 A 
ENDROOT
BRANCH   1   7
ATOM      7  C   UNL     1     -21.831  23.558  11.424  1.00  0.00     0.010 C 
ATOM      8  C   UNL     1     -21.897  24.642  10.640  1.00  0.00     0.025 C 
BRANCH   8   9
ATOM      9  C   UNL     1     -22.250  24.551   9.213  1.00  0.00     0.064 C 
ATOM     10  O   UNL     1     -21.462  25.012   8.348  1.00  0.00    -0.545 OA
ATOM     11  O   UNL     1     -23.443  23.965   8.806  1.00  0.00    -0.545 OA
ENDBRANCH   8   9
ENDBRANCH   1   7
BRANCH   6  12
ATOM     12  O   UNL     1     -20.273  23.731  16.896  1.00  0.00    -0.508 OA
ATOM     13  H   UNL     1     -20.884  24.089  17.621  1.00  0.00     0.293 HD
ENDBRANCH   6  12
TORSDOF 3
ENDMDL
MODEL 3
REMARK VINA RESULT:    -3.740      3.665      5.401
REMARK INTER + INTRA:          -4.428
REMARK INTER:                  -4.287
REMARK INTRA:                  -0.140
REMARK UNBOUND:                -0.141
REMARK SMILES O=C([O-])C=Cc1ccc(O)cc1
REMARK SMILES IDX 6 1 7 2 12 3 8 4 11 5 9 6 5 7 4 8 2 9 1 10 3 11 10 12
REMARK H PARENT 10 13
REMARK Flexibility Score: inf
ROOT
ATOM      1  C   UNL     1     -20.323  23.604  15.746  1.00  0.00    -0.025 A 
ATOM      2  C   UNL     1     -19.478  23.975  14.680  1.00  0.00     0.012 A 
ATOM      3  C   UNL     1     -21.650  23.235  15.462  1.00  0.00     0.012 A 
ATOM      4  C   UNL     1     -19.963  23.997  13.368  1.00  0.00     0.047 A 
ATOM      5  C   UNL     1     -22.130  23.259  14.149  1.00  0.00     0.047 A 
ATOM      6  C   UNL     1     -21.290  23.641  13.100  1.00  0.00     0.115 A 
ENDROOT
BRANCH   1   7
ATOM      7  C   UNL     1     -19.857  23.553  17.154  1.00  0.00     0.010 C 
ATOM      8  C   UNL     1     -18.623  23.182  17.516  1.00  0.00     0.025 C 
BRANCH   8   9
ATOM      9  C   UNL     1     -18.200  23.157  18.927  1.00  0.00     0.064 C 
ATOM     10  O   UNL     1     -16.974  23.118  19.207  1.00  0.00    -0.545 OA
ATOM     11  O   UNL     1     -19.134  23.175  19.956  1.00  0.00    -0.545 OA
ENDBRANCH   8   9
ENDBRANCH   1   7
BRANCH   6  12
ATOM     12  O   UNL     1     -21.783  23.661  11.798  1.00  0.00    -0.508 OA
ATOM     13  H   UNL     1     -22.435  22.958  11.467  1.00  0.00     0.293 HD
ENDBRANCH   6  12
TORSDOF 3
ENDMDL
MODEL 4
REMARK VINA RESULT:    -3.706     10.426     12.294
REMARK INTER + INTRA:          -4.388
REMARK INTER:                  -4.242
REMARK INTRA:                  -0.146
REMARK UNBOUND:                -0.141
REMARK SMILES O=C([O-])C=Cc1ccc(O)cc1
REMARK SMILES IDX 6 1 7 2 12 3 8 4 11 5 9 6 5 7 4 8 2 9 1 10 3 11 10 12
REMARK H PARENT 10 13
REMARK Flexibility Score: inf
ROOT
ATOM      1  C   UNL     1     -20.649  30.191  21.253  1.00  0.00    -0.025 A 
ATOM      2  C   UNL     1     -19.928  29.542  20.229  1.00  0.00     0.012 A 
ATOM      3  C   UNL     1     -22.013  29.893  21.416  1.00  0.00     0.012 A 
ATOM      4  C   UNL     1     -20.570  28.636  19.378  1.00  0.00     0.047 A 
ATOM      5  C   UNL     1     -22.650  28.987  20.562  1.00  0.00     0.047 A 
ATOM      6  C   UNL     1     -21.932  28.358  19.541  1.00  0.00     0.115 A 
ENDROOT
BRANCH   1   7
ATOM      7  C   UNL     1     -20.015  31.151  22.190  1.00  0.00     0.010 C 
ATOM      8  C   UNL     1     -20.621  32.255  22.648  1.00  0.00     0.025 C 
BRANCH   8   9
ATOM      9  C   UNL     1     -19.956  33.174  23.588  1.00  0.00     0.064 C 
ATOM     10  O   UNL     1     -20.569  34.195  23.995  1.00  0.00    -0.545 OA
ATOM     11  O   UNL     1     -18.661  32.934  24.031  1.00  0.00    -0.545 OA
ENDBRANCH   8   9
ENDBRANCH   1   7
BRANCH   6  12
ATOM     12  O   UNL     1     -22.581  27.459  18.699  1.00  0.00    -0.508 OA
ATOM     13  H   UNL     1     -22.076  26.718  18.226  1.00  0.00     0.293 HD
ENDBRANCH   6  12
TORSDOF 3
ENDMDL
MODEL 5
REMARK VINA RESULT:    -3.692      4.760      9.098
REMARK INTER + INTRA:          -4.372
REMARK INTER:                  -4.237
REMARK INTRA:                  -0.135
REMARK UNBOUND:                -0.141
REMARK SMILES O=C([O-])C=Cc1ccc(O)cc1
REMARK SMILES IDX 6 1 7 2 12 3 8 4 11 5 9 6 5 7 4 8 2 9 1 10 3 11 10 12
REMARK H PARENT 10 13
REMARK Flexibility Score: inf
ROOT
ATOM      1  C   UNL     1     -19.019  23.446  18.071  1.00  0.00    -0.025 A 
ATOM      2  C   UNL     1     -17.761  22.930  18.443  1.00  0.00     0.012 A 
ATOM      3  C   UNL     1     -19.684  24.312  18.956  1.00  0.00     0.012 A 
ATOM      4  C   UNL     1     -17.199  23.259  19.682  1.00  0.00     0.047 A 
ATOM      5  C   UNL     1     -19.120  24.637  20.193  1.00  0.00     0.047 A 
ATOM      6  C   UNL     1     -17.879  24.111  20.560  1.00  0.00     0.115 A 
ENDROOT
BRANCH   1   7
ATOM      7  C   UNL     1     -19.654  23.139  16.766  1.00  0.00     0.010 C 
ATOM      8  C   UNL     1     -19.483  23.879  15.662  1.00  0.00     0.025 C 
BRANCH   8   9
ATOM      9  C   UNL     1     -20.124  23.529  14.384  1.00  0.00     0.064 C 
ATOM     10  O   UNL     1     -21.379  23.557  14.291  1.00  0.00    -0.545 OA
ATOM     11  O   UNL     1     -19.367  23.165  13.277  1.00  0.00    -0.545 OA
ENDBRANCH   8   9
ENDBRANCH   1   7
BRANCH   6  12
ATOM     12  O   UNL     1     -17.329  24.443  21.796  1.00  0.00    -0.508 OA
ATOM     13  H   UNL     1     -16.393  24.825  21.874  1.00  0.00     0.293 HD
ENDBRANCH   6  12
TORSDOF 3
ENDMDL
MODEL 6
REMARK VINA RESULT:    -3.568     10.223     12.370
REMARK INTER + INTRA:          -4.231
REMARK INTER:                  -4.093
REMARK INTRA:                  -0.138
REMARK UNBOUND:                -0.141
REMARK SMILES O=C([O-])C=Cc1ccc(O)cc1
REMARK SMILES IDX 6 1 7 2 12 3 8 4 11 5 9 6 5 7 4 8 2 9 1 10 3 11 10 12
REMARK H PARENT 10 13
REMARK Flexibility Score: inf
ROOT
ATOM      1  C   UNL     1     -19.558  29.469  21.643  1.00  0.00    -0.025 A 
ATOM      2  C   UNL     1     -20.071  29.690  20.348  1.00  0.00     0.012 A 
ATOM      3  C   UNL     1     -19.320  28.148  22.061  1.00  0.00     0.012 A 
ATOM      4  C   UNL     1     -20.360  28.610  19.508  1.00  0.00     0.047 A 
ATOM      5  C   UNL     1     -19.611  27.071  21.218  1.00  0.00     0.047 A 
ATOM      6  C   UNL     1     -20.133  27.298  19.942  1.00  0.00     0.115 A 
ENDROOT
BRANCH   1   7
ATOM      7  C   UNL     1     -19.223  30.578  22.570  1.00  0.00     0.010 C 
ATOM      8  C   UNL     1     -19.955  31.693  22.692  1.00  0.00     0.025 C 
BRANCH   8   9
ATOM      9  C   UNL     1     -19.591  32.764  23.635  1.00  0.00     0.064 C 
ATOM     10  O   UNL     1     -18.421  32.813  24.097  1.00  0.00    -0.545 OA
ATOM     11  O   UNL     1     -20.519  33.722  24.026  1.00  0.00    -0.545 OA
ENDBRANCH   8   9
ENDBRANCH   1   7
BRANCH   6  12
ATOM     12  O   UNL     1     -20.419  26.216  19.114  1.00  0.00    -0.508 OA
ATOM     13  H   UNL     1     -19.682  25.669  18.684  1.00  0.00     0.293 HD
ENDBRANCH   6  12
TORSDOF 3
ENDMDL
MODEL 7
REMARK VINA RESULT:    -3.563     11.885     13.531
REMARK INTER + INTRA:          -4.225
REMARK INTER:                  -4.072
REMARK INTRA:                  -0.152
REMARK UNBOUND:                -0.141
REMARK SMILES O=C([O-])C=Cc1ccc(O)cc1
REMARK SMILES IDX 6 1 7 2 12 3 8 4 11 5 9 6 5 7 4 8 2 9 1 10 3 11 10 12
REMARK H PARENT 10 13
REMARK Flexibility Score: inf
ROOT
ATOM      1  C   UNL     1     -19.976  30.366  21.886  1.00  0.00    -0.025 A 
ATOM      2  C   UNL     1     -19.222  29.278  21.399  1.00  0.00     0.012 A 
ATOM      3  C   UNL     1     -19.542  31.024  23.050  1.00  0.00     0.012 A 
ATOM      4  C   UNL     1     -18.076  28.851  22.079  1.00  0.00     0.047 A 
ATOM      5  C   UNL     1     -18.397  30.593  23.727  1.00  0.00     0.047 A 
ATOM      6  C   UNL     1     -17.663  29.506  23.246  1.00  0.00     0.115 A 
ENDROOT
BRANCH   1   7
ATOM      7  C   UNL     1     -21.191  30.867  21.197  1.00  0.00     0.010 C 
ATOM      8  C   UNL     1     -21.951  31.867  21.662  1.00  0.00     0.025 C 
BRANCH   8   9
ATOM      9  C   UNL     1     -23.143  32.340  20.938  1.00  0.00     0.064 C 
ATOM     10  O   UNL     1     -24.032  31.515  20.601  1.00  0.00    -0.545 OA
ATOM     11  O   UNL     1     -23.302  33.682  20.616  1.00  0.00    -0.545 OA
ENDBRANCH   8   9
ENDBRANCH   1   7
BRANCH   6  12
ATOM     12  O   UNL     1     -16.526  29.088  23.931  1.00  0.00    -0.508 OA
ATOM     13  H   UNL     1     -15.619  29.507  23.759  1.00  0.00     0.293 HD
ENDBRANCH   6  12
TORSDOF 3
ENDMDL
MODEL 8
REMARK VINA RESULT:    -3.538     11.750     13.379
REMARK INTER + INTRA:          -4.196
REMARK INTER:                  -4.056
REMARK INTRA:                  -0.140
REMARK UNBOUND:                -0.141
REMARK SMILES O=C([O-])C=Cc1ccc(O)cc1
REMARK SMILES IDX 6 1 7 2 12 3 8 4 11 5 9 6 5 7 4 8 2 9 1 10 3 11 10 12
REMARK H PARENT 10 13
REMARK Flexibility Score: inf
ROOT
ATOM      1  C   UNL     1     -19.941  30.348  21.889  1.00  0.00    -0.025 A 
ATOM      2  C   UNL     1     -19.541  31.010  23.068  1.00  0.00     0.012 A 
ATOM      3  C   UNL     1     -19.193  29.244  21.444  1.00  0.00     0.012 A 
ATOM      4  C   UNL     1     -18.405  30.585  23.766  1.00  0.00     0.047 A 
ATOM      5  C   UNL     1     -18.058  28.824  22.145  1.00  0.00     0.047 A 
ATOM      6  C   UNL     1     -17.660  29.494  23.305  1.00  0.00     0.115 A 
ENDROOT
BRANCH   1   7
ATOM      7  C   UNL     1     -21.143  30.749  21.117  1.00  0.00     0.010 C 
ATOM      8  C   UNL     1     -22.064  31.611  21.568  1.00  0.00     0.025 C 
BRANCH   8   9
ATOM      9  C   UNL     1     -23.236  31.989  20.761  1.00  0.00     0.064 C 
ATOM     10  O   UNL     1     -23.982  31.091  20.291  1.00  0.00    -0.545 OA
ATOM     11  O   UNL     1     -23.532  33.323  20.506  1.00  0.00    -0.545 OA
ENDBRANCH   8   9
ENDBRANCH   1   7
BRANCH   6  12
ATOM     12  O   UNL     1     -16.527  29.065  23.992  1.00  0.00    -0.508 OA
ATOM     13  H   UNL     1     -15.594  29.291  23.667  1.00  0.00     0.293 HD
ENDBRANCH   6  12
TORSDOF 3
ENDMDL
MODEL 9
REMARK VINA RESULT:    -3.374      2.895      3.535
REMARK INTER + INTRA:          -4.008
REMARK INTER:                  -3.857
REMARK INTRA:                  -0.151
REMARK UNBOUND:                -0.141
REMARK SMILES O=C([O-])C=Cc1ccc(O)cc1
REMARK SMILES IDX 6 1 7 2 12 3 8 4 11 5 9 6 5 7 4 8 2 9 1 10 3 11 10 12
REMARK H PARENT 10 13
REMARK Flexibility Score: inf
ROOT
ATOM      1  C   UNL     1     -21.974  23.268  14.056  1.00  0.00    -0.025 A 
ATOM      2  C   UNL     1     -23.307  23.588  13.729  1.00  0.00     0.012 A 
ATOM      3  C   UNL     1     -21.086  22.924  13.023  1.00  0.00     0.012 A 
ATOM      4  C   UNL     1     -23.740  23.540  12.399  1.00  0.00     0.047 A 
ATOM      5  C   UNL     1     -21.523  22.876  11.696  1.00  0.00     0.047 A 
ATOM      6  C   UNL     1     -22.849  23.181  11.380  1.00  0.00     0.115 A 
ENDROOT
BRANCH   1   7
ATOM      7  C   UNL     1     -21.460  23.315  15.448  1.00  0.00     0.010 C 
ATOM      8  C   UNL     1     -20.161  23.416  15.759  1.00  0.00     0.025 C 
BRANCH   8   9
ATOM      9  C   UNL     1     -19.698  23.472  17.156  1.00  0.00     0.064 C 
ATOM     10  O   UNL     1     -18.464  23.439  17.402  1.00  0.00    -0.545 OA
ATOM     11  O   UNL     1     -20.601  23.557  18.208  1.00  0.00    -0.545 OA
ENDBRANCH   8   9
ENDBRANCH   1   7
BRANCH   6  12
ATOM     12  O   UNL     1     -23.271  23.128  10.054  1.00  0.00    -0.508 OA
ATOM     13  H   UNL     1     -24.183  23.468   9.774  1.00  0.00     0.293 HD
ENDBRANCH   6  12
TORSDOF 3
ENDMDL
