MODEL 1
REMARK VINA RESULT:    -4.500      0.000      0.000
REMARK INTER + INTRA:         -16.521
REMARK INTER:                 -11.866
REMARK INTRA:                  -4.655
REMARK UNBOUND:                -4.655
REMARK SMILES CCCCCCCCCCCCCCCCCCCCCCCCCCCCCC(=O)[O-]
REMARK SMILES IDX 16 1 17 2 18 3 19 4 20 5 21 6 22 7 23 8 24 9 25 10 26 11
REMARK SMILES IDX 27 12 28 13 29 14 30 15 31 16 32 17 15 18 14 19 13 20 12 21
REMARK SMILES IDX 11 22 10 23 9 24 8 25 7 26 6 27 5 28 4 29 3 30 2 31 1 32
REMARK H PARENT
REMARK Flexibility Score: inf
ROOT
ATOM      1  C   UNL     1       5.122  33.361 -16.999  1.00  0.00     0.000 C 
ENDROOT
BRANCH   1   2
ATOM      2  C   UNL     1       5.600  34.463 -16.038  1.00  0.00     0.000 C 
BRANCH   2   3
ATOM      3  C   UNL     1       6.995  34.998 -16.390  1.00  0.00     0.000 C 
BRANCH   3   4
ATOM      4  C   UNL     1       8.025  34.605 -15.323  1.00  0.00     0.000 C 
BRANCH   4   5
ATOM      5  C   UNL     1       9.086  33.662 -15.911  1.00  0.00     0.000 C 
BRANCH   5   6
ATOM      6  C   UNL     1      10.074  33.141 -14.857  1.00  0.00     0.000 C 
BRANCH   6   7
ATOM      7  C   UNL     1       9.447  32.086 -13.929  1.00  0.00     0.000 C 
BRANCH   7   8
ATOM      8  C   UNL     1       9.684  32.387 -12.438  1.00  0.00     0.000 C 
BRANCH   8   9
ATOM      9  C   UNL     1       8.453  32.910 -11.670  1.00  0.00     0.000 C 
BRANCH   9  10
ATOM     10  C   UNL     1       7.110  32.268 -12.075  1.00  0.00     0.000 C 
BRANCH  10  11
ATOM     11  C   UNL     1       5.868  33.152 -11.839  1.00  0.00     0.000 C 
BRANCH  11  12
ATOM     12  C   UNL     1       4.563  32.605 -12.444  1.00  0.00     0.000 C 
BRANCH  12  13
ATOM     13  C   UNL     1       3.627  33.716 -12.945  1.00  0.00     0.006 C 
BRANCH  13  14
ATOM     14  C   UNL     1       3.686  34.940 -12.026  1.00  0.00     0.053 C 
BRANCH  14  15
ATOM     15  C   UNL     1       2.736  34.788 -10.879  1.00  0.00     0.041 C 
ATOM     16  O   UNL     1       1.494  34.858 -11.072  1.00  0.00    -0.550 OA
ATOM     17  O   UNL     1       3.222  34.529  -9.601  1.00  0.00    -0.550 OA
ENDBRANCH  14  15
ENDBRANCH  13  14
ENDBRANCH  12  13
ENDBRANCH  11  12
ENDBRANCH  10  11
ENDBRANCH   9  10
ENDBRANCH   8   9
ENDBRANCH   7   8
ENDBRANCH   6   7
ENDBRANCH   5   6
ENDBRANCH   4   5
ENDBRANCH   3   4
ENDBRANCH   2   3
ENDBRANCH   1   2
BRANCH   1  18
ATOM     18  C   UNL     1       5.837  32.002 -16.843  1.00  0.00     0.000 C 
BRANCH  18  19
ATOM     19  C   UNL     1       5.644  31.315 -15.479  1.00  0.00     0.000 C 
BRANCH  19  20
ATOM     20  C   UNL     1       6.698  30.244 -15.135  1.00  0.00     0.000 C 
BRANCH  20  21
ATOM     21  C   UNL     1       6.131  28.809 -15.075  1.00  0.00     0.000 C 
BRANCH  21  22
ATOM     22  C   UNL     1       6.867  27.930 -14.048  1.00  0.00     0.000 C 
BRANCH  22  23
ATOM     23  C   UNL     1       7.723  28.752 -13.072  1.00  0.00     0.000 C 
BRANCH  23  24
ATOM     24  C   UNL     1       9.217  28.390 -13.157  1.00  0.00    -0.000 C 
BRANCH  24  25
ATOM     25  C   UNL     1       9.739  28.348 -14.603  1.00  0.00    -0.000 C 
BRANCH  25  26
ATOM     26  C   UNL     1      10.733  27.211 -14.904  1.00  0.00    -0.000 C 
BRANCH  26  27
ATOM     27  C   UNL     1      10.646  26.031 -13.912  1.00  0.00    -0.000 C 
BRANCH  27  28
ATOM     28  C   UNL     1       9.895  24.826 -14.508  1.00  0.00    -0.000 C 
BRANCH  28  29
ATOM     29  C   UNL     1       9.158  24.002 -13.441  1.00  0.00    -0.000 C 
BRANCH  29  30
ATOM     30  C   UNL     1       8.498  24.882 -12.370  1.00  0.00    -0.000 C 
BRANCH  30  31
ATOM     31  C   UNL     1       7.445  24.089 -11.585  1.00  0.00    -0.003 C 
ATOM     32  C   UNL     1       8.084  23.285 -10.456  1.00  0.00     0.004 C 
ENDBRANCH  30  31
ENDBRANCH  29  30
ENDBRANCH  28  29
ENDBRANCH  27  28
ENDBRANCH  26  27
ENDBRANCH  25  26
ENDBRANCH  24  25
ENDBRANCH  23  24
ENDBRANCH  22  23
ENDBRANCH  21  22
ENDBRANCH  20  21
ENDBRANCH  19  20
ENDBRANCH  18  19
ENDBRANCH   1  18
TORSDOF 28
ENDMDL
MODEL 2
REMARK VINA RESULT:    -4.336      5.572      7.698
REMARK INTER + INTRA:         -16.088
REMARK INTER:                 -13.636
REMARK INTRA:                  -2.452
REMARK UNBOUND:                -4.655
REMARK SMILES CCCCCCCCCCCCCCCCCCCCCCCCCCCCCC(=O)[O-]
REMARK SMILES IDX 16 1 17 2 18 3 19 4 20 5 21 6 22 7 23 8 24 9 25 10 26 11
REMARK SMILES IDX 27 12 28 13 29 14 30 15 31 16 32 17 15 18 14 19 13 20 12 21
REMARK SMILES IDX 11 22 10 23 9 24 8 25 7 26 6 27 5 28 4 29 3 30 2 31 1 32
REMARK H PARENT
REMARK Flexibility Score: inf
ROOT
ATOM      1  C   UNL     1       3.604  35.718 -18.281  1.00  0.00     0.000 C 
ENDROOT
BRANCH   1   2
ATOM      2  C   UNL     1       3.622  34.402 -19.077  1.00  0.00     0.000 C 
BRANCH   2   3
ATOM      3  C   UNL     1       2.610  34.387 -20.231  1.00  0.00     0.000 C 
BRANCH   3   4
ATOM      4  C   UNL     1       2.774  35.620 -21.128  1.00  0.00     0.000 C 
BRANCH   4   5
ATOM      5  C   UNL     1       1.405  36.186 -21.533  1.00  0.00     0.000 C 
BRANCH   5   6
ATOM      6  C   UNL     1       0.612  36.746 -20.342  1.00  0.00     0.000 C 
BRANCH   6   7
ATOM      7  C   UNL     1      -0.764  36.078 -20.182  1.00  0.00     0.000 C 
BRANCH   7   8
ATOM      8  C   UNL     1      -1.193  35.939 -18.710  1.00  0.00     0.000 C 
BRANCH   8   9
ATOM      9  C   UNL     1      -0.598  34.727 -17.965  1.00  0.00     0.000 C 
BRANCH   9  10
ATOM     10  C   UNL     1      -0.387  33.468 -18.831  1.00  0.00     0.000 C 
BRANCH  10  11
ATOM     11  C   UNL     1      -1.214  32.238 -18.404  1.00  0.00     0.000 C 
BRANCH  11  12
ATOM     12  C   UNL     1      -2.610  32.563 -17.842  1.00  0.00     0.000 C 
BRANCH  12  13
ATOM     13  C   UNL     1      -3.702  32.564 -18.922  1.00  0.00     0.006 C 
BRANCH  13  14
ATOM     14  C   UNL     1      -4.718  31.444 -18.678  1.00  0.00     0.053 C 
BRANCH  14  15
ATOM     15  C   UNL     1      -5.961  31.987 -18.045  1.00  0.00     0.041 C 
ATOM     16  O   UNL     1      -6.094  31.971 -16.793  1.00  0.00    -0.550 OA
ATOM     17  O   UNL     1      -6.959  32.546 -18.837  1.00  0.00    -0.550 OA
ENDBRANCH  14  15
ENDBRANCH  13  14
ENDBRANCH  12  13
ENDBRANCH  11  12
ENDBRANCH  10  11
ENDBRANCH   9  10
ENDBRANCH   8   9
ENDBRANCH   7   8
ENDBRANCH   6   7
ENDBRANCH   5   6
ENDBRANCH   4   5
ENDBRANCH   3   4
ENDBRANCH   2   3
ENDBRANCH   1   2
BRANCH   1  18
ATOM     18  C   UNL     1       4.630  35.803 -17.132  1.00  0.00     0.000 C 
BRANCH  18  19
ATOM     19  C   UNL     1       5.319  34.474 -16.772  1.00  0.00     0.000 C 
BRANCH  19  20
ATOM     20  C   UNL     1       5.217  34.069 -15.289  1.00  0.00     0.000 C 
BRANCH  20  21
ATOM     21  C   UNL     1       4.121  33.021 -15.003  1.00  0.00     0.000 C 
BRANCH  21  22
ATOM     22  C   UNL     1       4.695  31.711 -14.435  1.00  0.00     0.000 C 
BRANCH  22  23
ATOM     23  C   UNL     1       6.058  31.910 -13.753  1.00  0.00     0.000 C 
BRANCH  23  24
ATOM     24  C   UNL     1       7.051  30.783 -14.090  1.00  0.00    -0.000 C 
BRANCH  24  25
ATOM     25  C   UNL     1       7.678  30.147 -12.837  1.00  0.00    -0.000 C 
BRANCH  25  26
ATOM     26  C   UNL     1       8.060  28.662 -12.983  1.00  0.00    -0.000 C 
BRANCH  26  27
ATOM     27  C   UNL     1       6.914  27.775 -13.515  1.00  0.00    -0.000 C 
BRANCH  27  28
ATOM     28  C   UNL     1       7.067  26.306 -13.078  1.00  0.00    -0.000 C 
BRANCH  28  29
ATOM     29  C   UNL     1       8.526  25.925 -12.784  1.00  0.00    -0.000 C 
BRANCH  29  30
ATOM     30  C   UNL     1       8.791  24.425 -12.973  1.00  0.00    -0.000 C 
BRANCH  30  31
ATOM     31  C   UNL     1       8.328  23.630 -11.744  1.00  0.00    -0.003 C 
ATOM     32  C   UNL     1       8.755  24.314 -10.448  1.00  0.00     0.004 C 
ENDBRANCH  30  31
ENDBRANCH  29  30
ENDBRANCH  28  29
ENDBRANCH  27  28
ENDBRANCH  26  27
ENDBRANCH  25  26
ENDBRANCH  24  25
ENDBRANCH  23  24
ENDBRANCH  22  23
ENDBRANCH  21  22
ENDBRANCH  20  21
ENDBRANCH  19  20
ENDBRANCH  18  19
ENDBRANCH   1  18
TORSDOF 28
ENDMDL
MODEL 3
REMARK VINA RESULT:    -4.333     10.819     15.008
REMARK INTER + INTRA:         -16.081
REMARK INTER:                 -13.205
REMARK INTRA:                  -2.876
REMARK UNBOUND:                -4.655
REMARK SMILES CCCCCCCCCCCCCCCCCCCCCCCCCCCCCC(=O)[O-]
REMARK SMILES IDX 16 1 17 2 18 3 19 4 20 5 21 6 22 7 23 8 24 9 25 10 26 11
REMARK SMILES IDX 27 12 28 13 29 14 30 15 31 16 32 17 15 18 14 19 13 20 12 21
REMARK SMILES IDX 11 22 10 23 9 24 8 25 7 26 6 27 5 28 4 29 3 30 2 31 1 32
REMARK H PARENT
REMARK Flexibility Score: inf
ROOT
ATOM      1  C   UNL     1       0.377  20.870  -6.000  1.00  0.00     0.000 C 
ENDROOT
BRANCH   1   2
ATOM      2  C   UNL     1       1.298  20.109  -5.029  1.00  0.00     0.000 C 
BRANCH   2   3
ATOM      3  C   UNL     1       1.326  18.597  -5.295  1.00  0.00     0.000 C 
BRANCH   3   4
ATOM      4  C   UNL     1       2.691  18.155  -5.835  1.00  0.00     0.000 C 
BRANCH   4   5
ATOM      5  C   UNL     1       2.531  17.363  -7.141  1.00  0.00     0.000 C 
BRANCH   5   6
ATOM      6  C   UNL     1       3.194  18.051  -8.344  1.00  0.00     0.000 C 
BRANCH   6   7
ATOM      7  C   UNL     1       2.571  17.626  -9.685  1.00  0.00     0.000 C 
BRANCH   7   8
ATOM      8  C   UNL     1       1.140  17.078  -9.532  1.00  0.00     0.000 C 
BRANCH   8   9
ATOM      9  C   UNL     1       0.023  18.007 -10.050  1.00  0.00     0.000 C 
BRANCH   9  10
ATOM     10  C   UNL     1      -0.004  18.206 -11.580  1.00  0.00     0.000 C 
BRANCH  10  11
ATOM     11  C   UNL     1      -1.303  17.750 -12.273  1.00  0.00     0.000 C 
BRANCH  11  12
ATOM     12  C   UNL     1      -1.815  18.699 -13.372  1.00  0.00     0.000 C 
BRANCH  12  13
ATOM     13  C   UNL     1      -2.930  18.076 -14.225  1.00  0.00     0.006 C 
BRANCH  13  14
ATOM     14  C   UNL     1      -4.125  17.668 -13.357  1.00  0.00     0.053 C 
BRANCH  14  15
ATOM     15  C   UNL     1      -5.349  18.435 -13.749  1.00  0.00     0.041 C 
ATOM     16  O   UNL     1      -6.166  18.818 -12.871  1.00  0.00    -0.550 OA
ATOM     17  O   UNL     1      -5.569  18.761 -15.084  1.00  0.00    -0.550 OA
ENDBRANCH  14  15
ENDBRANCH  13  14
ENDBRANCH  12  13
ENDBRANCH  11  12
ENDBRANCH  10  11
ENDBRANCH   9  10
ENDBRANCH   8   9
ENDBRANCH   7   8
ENDBRANCH   6   7
ENDBRANCH   5   6
ENDBRANCH   4   5
ENDBRANCH   3   4
ENDBRANCH   2   3
ENDBRANCH   1   2
BRANCH   1  18
ATOM     18  C   UNL     1       0.591  20.546  -7.493  1.00  0.00     0.000 C 
BRANCH  18  19
ATOM     19  C   UNL     1       1.623  21.432  -8.213  1.00  0.00     0.000 C 
BRANCH  19  20
ATOM     20  C   UNL     1       1.348  21.666  -9.711  1.00  0.00     0.000 C 
BRANCH  20  21
ATOM     21  C   UNL     1       2.482  21.175 -10.637  1.00  0.00     0.000 C 
BRANCH  21  22
ATOM     22  C   UNL     1       2.079  21.197 -12.122  1.00  0.00     0.000 C 
BRANCH  22  23
ATOM     23  C   UNL     1       2.583  22.453 -12.852  1.00  0.00     0.000 C 
BRANCH  23  24
ATOM     24  C   UNL     1       2.133  22.494 -14.323  1.00  0.00    -0.000 C 
BRANCH  24  25
ATOM     25  C   UNL     1       3.249  22.088 -15.299  1.00  0.00    -0.000 C 
BRANCH  25  26
ATOM     26  C   UNL     1       3.094  22.636 -16.731  1.00  0.00    -0.000 C 
BRANCH  26  27
ATOM     27  C   UNL     1       1.812  22.156 -17.444  1.00  0.00    -0.000 C 
BRANCH  27  28
ATOM     28  C   UNL     1       1.821  22.498 -18.945  1.00  0.00    -0.000 C 
BRANCH  28  29
ATOM     29  C   UNL     1       2.550  21.439 -19.788  1.00  0.00    -0.000 C 
BRANCH  29  30
ATOM     30  C   UNL     1       1.656  20.237 -20.123  1.00  0.00    -0.000 C 
BRANCH  30  31
ATOM     31  C   UNL     1       2.500  19.042 -20.587  1.00  0.00    -0.003 C 
ATOM     32  C   UNL     1       3.758  19.503 -21.320  1.00  0.00     0.004 C 
ENDBRANCH  30  31
ENDBRANCH  29  30
ENDBRANCH  28  29
ENDBRANCH  27  28
ENDBRANCH  26  27
ENDBRANCH  25  26
ENDBRANCH  24  25
ENDBRANCH  23  24
ENDBRANCH  22  23
ENDBRANCH  21  22
ENDBRANCH  20  21
ENDBRANCH  19  20
ENDBRANCH  18  19
ENDBRANCH   1  18
TORSDOF 28
ENDMDL
MODEL 4
REMARK VINA RESULT:    -4.333      1.807      2.241
REMARK INTER + INTRA:         -16.081
REMARK INTER:                 -11.615
REMARK INTRA:                  -4.465
REMARK UNBOUND:                -4.655
REMARK SMILES CCCCCCCCCCCCCCCCCCCCCCCCCCCCCC(=O)[O-]
REMARK SMILES IDX 16 1 17 2 18 3 19 4 20 5 21 6 22 7 23 8 24 9 25 10 26 11
REMARK SMILES IDX 27 12 28 13 29 14 30 15 31 16 32 17 15 18 14 19 13 20 12 21
REMARK SMILES IDX 11 22 10 23 9 24 8 25 7 26 6 27 5 28 4 29 3 30 2 31 1 32
REMARK H PARENT
REMARK Flexibility Score: inf
ROOT
ATOM      1  C   UNL     1       4.920  33.445 -16.556  1.00  0.00     0.000 C 
ENDROOT
BRANCH   1   2
ATOM      2  C   UNL     1       5.632  34.514 -15.709  1.00  0.00     0.000 C 
BRANCH   2   3
ATOM      3  C   UNL     1       6.448  35.500 -16.556  1.00  0.00     0.000 C 
BRANCH   3   4
ATOM      4  C   UNL     1       7.905  35.565 -16.082  1.00  0.00     0.000 C 
BRANCH   4   5
ATOM      5  C   UNL     1       8.556  34.175 -16.125  1.00  0.00     0.000 C 
BRANCH   5   6
ATOM      6  C   UNL     1       9.438  33.887 -14.901  1.00  0.00     0.000 C 
BRANCH   6   7
ATOM      7  C   UNL     1       9.036  32.594 -14.173  1.00  0.00     0.000 C 
BRANCH   7   8
ATOM      8  C   UNL     1       8.444  32.855 -12.776  1.00  0.00     0.000 C 
BRANCH   8   9
ATOM      9  C   UNL     1       6.927  33.133 -12.748  1.00  0.00     0.000 C 
BRANCH   9  10
ATOM     10  C   UNL     1       6.072  32.023 -12.103  1.00  0.00     0.000 C 
BRANCH  10  11
ATOM     11  C   UNL     1       5.200  32.478 -10.916  1.00  0.00     0.000 C 
BRANCH  11  12
ATOM     12  C   UNL     1       5.805  33.613 -10.069  1.00  0.00     0.000 C 
BRANCH  12  13
ATOM     13  C   UNL     1       4.803  34.206  -9.067  1.00  0.00     0.006 C 
BRANCH  13  14
ATOM     14  C   UNL     1       4.921  33.522  -7.701  1.00  0.00     0.053 C 
BRANCH  14  15
ATOM     15  C   UNL     1       5.292  34.513  -6.643  1.00  0.00     0.041 C 
ATOM     16  O   UNL     1       6.503  34.773  -6.414  1.00  0.00    -0.550 OA
ATOM     17  O   UNL     1       4.298  35.180  -5.934  1.00  0.00    -0.550 OA
ENDBRANCH  14  15
ENDBRANCH  13  14
ENDBRANCH  12  13
ENDBRANCH  11  12
ENDBRANCH  10  11
ENDBRANCH   9  10
ENDBRANCH   8   9
ENDBRANCH   7   8
ENDBRANCH   6   7
ENDBRANCH   5   6
ENDBRANCH   4   5
ENDBRANCH   3   4
ENDBRANCH   2   3
ENDBRANCH   1   2
BRANCH   1  18
ATOM     18  C   UNL     1       5.675  32.105 -16.688  1.00  0.00     0.000 C 
BRANCH  18  19
ATOM     19  C   UNL     1       5.609  31.193 -15.449  1.00  0.00     0.000 C 
BRANCH  19  20
ATOM     20  C   UNL     1       6.736  30.146 -15.352  1.00  0.00     0.000 C 
BRANCH  20  21
ATOM     21  C   UNL     1       6.241  28.731 -14.984  1.00  0.00     0.000 C 
BRANCH  21  22
ATOM     22  C   UNL     1       7.039  28.113 -13.822  1.00  0.00     0.000 C 
BRANCH  22  23
ATOM     23  C   UNL     1       7.923  29.142 -13.100  1.00  0.00     0.000 C 
BRANCH  23  24
ATOM     24  C   UNL     1       9.409  28.738 -13.100  1.00  0.00    -0.000 C 
BRANCH  24  25
ATOM     25  C   UNL     1      10.092  28.978 -14.457  1.00  0.00    -0.000 C 
BRANCH  25  26
ATOM     26  C   UNL     1      10.437  27.700 -15.246  1.00  0.00    -0.000 C 
BRANCH  26  27
ATOM     27  C   UNL     1      10.907  26.528 -14.358  1.00  0.00    -0.000 C 
BRANCH  27  28
ATOM     28  C   UNL     1      10.442  25.165 -14.902  1.00  0.00    -0.000 C 
BRANCH  28  29
ATOM     29  C   UNL     1       9.480  24.443 -13.946  1.00  0.00    -0.000 C 
BRANCH  29  30
ATOM     30  C   UNL     1       9.646  24.901 -12.490  1.00  0.00    -0.000 C 
BRANCH  30  31
ATOM     31  C   UNL     1       8.296  25.316 -11.890  1.00  0.00    -0.003 C 
ATOM     32  C   UNL     1       7.135  24.660 -12.634  1.00  0.00     0.004 C 
ENDBRANCH  30  31
ENDBRANCH  29  30
ENDBRANCH  28  29
ENDBRANCH  27  28
ENDBRANCH  26  27
ENDBRANCH  25  26
ENDBRANCH  24  25
ENDBRANCH  23  24
ENDBRANCH  22  23
ENDBRANCH  21  22
ENDBRANCH  20  21
ENDBRANCH  19  20
ENDBRANCH  18  19
ENDBRANCH   1  18
TORSDOF 28
ENDMDL
MODEL 5
REMARK VINA RESULT:    -4.326      1.994      3.915
REMARK INTER + INTRA:         -16.061
REMARK INTER:                 -12.014
REMARK INTRA:                  -4.048
REMARK UNBOUND:                -4.655
REMARK SMILES CCCCCCCCCCCCCCCCCCCCCCCCCCCCCC(=O)[O-]
REMARK SMILES IDX 16 1 17 2 18 3 19 4 20 5 21 6 22 7 23 8 24 9 25 10 26 11
REMARK SMILES IDX 27 12 28 13 29 14 30 15 31 16 32 17 15 18 14 19 13 20 12 21
REMARK SMILES IDX 11 22 10 23 9 24 8 25 7 26 6 27 5 28 4 29 3 30 2 31 1 32
REMARK H PARENT
REMARK Flexibility Score: inf
ROOT
ATOM      1  C   UNL     1       9.056  33.331 -15.712  1.00  0.00     0.000 C 
ENDROOT
BRANCH   1   2
ATOM      2  C   UNL     1       7.564  33.511 -15.379  1.00  0.00     0.000 C 
BRANCH   2   3
ATOM      3  C   UNL     1       6.684  33.633 -16.630  1.00  0.00     0.000 C 
BRANCH   3   4
ATOM      4  C   UNL     1       5.587  32.562 -16.643  1.00  0.00     0.000 C 
BRANCH   4   5
ATOM      5  C   UNL     1       5.878  31.471 -15.602  1.00  0.00     0.000 C 
BRANCH   5   6
ATOM      6  C   UNL     1       4.771  31.338 -14.546  1.00  0.00     0.000 C 
BRANCH   6   7
ATOM      7  C   UNL     1       4.013  32.657 -14.315  1.00  0.00     0.000 C 
BRANCH   7   8
ATOM      8  C   UNL     1       4.195  33.208 -12.889  1.00  0.00     0.000 C 
BRANCH   8   9
ATOM      9  C   UNL     1       5.253  32.480 -12.034  1.00  0.00     0.000 C 
BRANCH   9  10
ATOM     10  C   UNL     1       6.437  33.355 -11.575  1.00  0.00     0.000 C 
BRANCH  10  11
ATOM     11  C   UNL     1       6.275  33.991 -10.180  1.00  0.00     0.000 C 
BRANCH  11  12
ATOM     12  C   UNL     1       5.339  33.225  -9.227  1.00  0.00     0.000 C 
BRANCH  12  13
ATOM     13  C   UNL     1       5.520  33.635  -7.758  1.00  0.00     0.006 C 
BRANCH  13  14
ATOM     14  C   UNL     1       5.470  35.158  -7.602  1.00  0.00     0.053 C 
BRANCH  14  15
ATOM     15  C   UNL     1       4.192  35.581  -6.946  1.00  0.00     0.041 C 
ATOM     16  O   UNL     1       3.192  35.888  -7.646  1.00  0.00    -0.550 OA
ATOM     17  O   UNL     1       4.095  35.599  -5.558  1.00  0.00    -0.550 OA
ENDBRANCH  14  15
ENDBRANCH  13  14
ENDBRANCH  12  13
ENDBRANCH  11  12
ENDBRANCH  10  11
ENDBRANCH   9  10
ENDBRANCH   8   9
ENDBRANCH   7   8
ENDBRANCH   6   7
ENDBRANCH   5   6
ENDBRANCH   4   5
ENDBRANCH   3   4
ENDBRANCH   2   3
ENDBRANCH   1   2
BRANCH   1  18
ATOM     18  C   UNL     1      10.029  34.103 -14.795  1.00  0.00     0.000 C 
BRANCH  18  19
ATOM     19  C   UNL     1       9.493  34.409 -13.385  1.00  0.00     0.000 C 
BRANCH  19  20
ATOM     20  C   UNL     1      10.301  33.782 -12.232  1.00  0.00     0.000 C 
BRANCH  20  21
ATOM     21  C   UNL     1       9.779  32.399 -11.786  1.00  0.00     0.000 C 
BRANCH  21  22
ATOM     22  C   UNL     1      10.739  31.258 -12.169  1.00  0.00     0.000 C 
BRANCH  22  23
ATOM     23  C   UNL     1      10.075  30.206 -13.071  1.00  0.00     0.000 C 
BRANCH  23  24
ATOM     24  C   UNL     1       8.618  30.565 -13.413  1.00  0.00    -0.000 C 
BRANCH  24  25
ATOM     25  C   UNL     1       7.607  29.546 -12.859  1.00  0.00    -0.000 C 
BRANCH  25  26
ATOM     26  C   UNL     1       7.434  28.272 -13.708  1.00  0.00    -0.000 C 
BRANCH  26  27
ATOM     27  C   UNL     1       7.647  26.964 -12.917  1.00  0.00    -0.000 C 
BRANCH  27  28
ATOM     28  C   UNL     1       8.933  26.232 -13.341  1.00  0.00    -0.000 C 
BRANCH  28  29
ATOM     29  C   UNL     1       9.583  25.459 -12.183  1.00  0.00    -0.000 C 
BRANCH  29  30
ATOM     30  C   UNL     1       8.896  24.112 -11.918  1.00  0.00    -0.000 C 
BRANCH  30  31
ATOM     31  C   UNL     1       8.520  23.973 -10.436  1.00  0.00    -0.003 C 
ATOM     32  C   UNL     1       7.393  22.962 -10.243  1.00  0.00     0.004 C 
ENDBRANCH  30  31
ENDBRANCH  29  30
ENDBRANCH  28  29
ENDBRANCH  27  28
ENDBRANCH  26  27
ENDBRANCH  25  26
ENDBRANCH  24  25
ENDBRANCH  23  24
ENDBRANCH  22  23
ENDBRANCH  21  22
ENDBRANCH  20  21
ENDBRANCH  19  20
ENDBRANCH  18  19
ENDBRANCH   1  18
TORSDOF 28
ENDMDL
MODEL 6
REMARK VINA RESULT:    -4.296      3.412      8.774
REMARK INTER + INTRA:         -15.983
REMARK INTER:                 -11.484
REMARK INTRA:                  -4.500
REMARK UNBOUND:                -4.655
REMARK SMILES CCCCCCCCCCCCCCCCCCCCCCCCCCCCCC(=O)[O-]
REMARK SMILES IDX 16 1 17 2 18 3 19 4 20 5 21 6 22 7 23 8 24 9 25 10 26 11
REMARK SMILES IDX 27 12 28 13 29 14 30 15 31 16 32 17 15 18 14 19 13 20 12 21
REMARK SMILES IDX 11 22 10 23 9 24 8 25 7 26 6 27 5 28 4 29 3 30 2 31 1 32
REMARK H PARENT
REMARK Flexibility Score: inf
ROOT
ATOM      1  C   UNL     1       7.142  33.546 -14.914  1.00  0.00     0.000 C 
ENDROOT
BRANCH   1   2
ATOM      2  C   UNL     1       5.909  32.821 -15.484  1.00  0.00     0.000 C 
BRANCH   2   3
ATOM      3  C   UNL     1       5.665  31.455 -14.827  1.00  0.00     0.000 C 
BRANCH   3   4
ATOM      4  C   UNL     1       5.986  30.310 -15.795  1.00  0.00     0.000 C 
BRANCH   4   5
ATOM      5  C   UNL     1       6.267  29.010 -15.027  1.00  0.00     0.000 C 
BRANCH   5   6
ATOM      6  C   UNL     1       7.746  28.849 -14.643  1.00  0.00     0.000 C 
BRANCH   6   7
ATOM      7  C   UNL     1       8.002  29.120 -13.151  1.00  0.00     0.000 C 
BRANCH   7   8
ATOM      8  C   UNL     1       9.486  28.976 -12.764  1.00  0.00     0.000 C 
BRANCH   8   9
ATOM      9  C   UNL     1      10.356  28.206 -13.778  1.00  0.00     0.000 C 
BRANCH   9  10
ATOM     10  C   UNL     1      10.864  26.832 -13.292  1.00  0.00     0.000 C 
BRANCH  10  11
ATOM     11  C   UNL     1      10.325  25.623 -14.081  1.00  0.00     0.000 C 
BRANCH  11  12
ATOM     12  C   UNL     1       9.071  24.964 -13.477  1.00  0.00     0.000 C 
BRANCH  12  13
ATOM     13  C   UNL     1       8.775  25.447 -12.049  1.00  0.00     0.006 C 
BRANCH  13  14
ATOM     14  C   UNL     1       8.934  24.306 -11.039  1.00  0.00     0.053 C 
BRANCH  14  15
ATOM     15  C   UNL     1       7.714  23.439 -11.023  1.00  0.00     0.041 C 
ATOM     16  O   UNL     1       7.787  22.248 -10.624  1.00  0.00    -0.550 OA
ATOM     17  O   UNL     1       6.485  23.961 -11.416  1.00  0.00    -0.550 OA
ENDBRANCH  14  15
ENDBRANCH  13  14
ENDBRANCH  12  13
ENDBRANCH  11  12
ENDBRANCH  10  11
ENDBRANCH   9  10
ENDBRANCH   8   9
ENDBRANCH   7   8
ENDBRANCH   6   7
ENDBRANCH   5   6
ENDBRANCH   4   5
ENDBRANCH   3   4
ENDBRANCH   2   3
ENDBRANCH   1   2
BRANCH   1  18
ATOM     18  C   UNL     1       8.399  32.667 -14.749  1.00  0.00     0.000 C 
BRANCH  18  19
ATOM     19  C   UNL     1       9.045  32.706 -13.352  1.00  0.00     0.000 C 
BRANCH  19  20
ATOM     20  C   UNL     1       8.371  33.663 -12.350  1.00  0.00     0.000 C 
BRANCH  20  21
ATOM     21  C   UNL     1       7.379  32.966 -11.394  1.00  0.00     0.000 C 
BRANCH  21  22
ATOM     22  C   UNL     1       6.028  33.700 -11.313  1.00  0.00     0.000 C 
BRANCH  22  23
ATOM     23  C   UNL     1       4.830  32.756 -11.502  1.00  0.00     0.000 C 
BRANCH  23  24
ATOM     24  C   UNL     1       3.689  33.411 -12.300  1.00  0.00    -0.000 C 
BRANCH  24  25
ATOM     25  C   UNL     1       3.847  34.936 -12.423  1.00  0.00    -0.000 C 
BRANCH  25  26
ATOM     26  C   UNL     1       2.820  35.763 -11.626  1.00  0.00    -0.000 C 
BRANCH  26  27
ATOM     27  C   UNL     1       1.830  34.905 -10.809  1.00  0.00    -0.000 C 
BRANCH  27  28
ATOM     28  C   UNL     1       2.133  34.949  -9.300  1.00  0.00    -0.000 C 
BRANCH  28  29
ATOM     29  C   UNL     1       3.280  35.912  -8.955  1.00  0.00    -0.000 C 
BRANCH  29  30
ATOM     30  C   UNL     1       4.080  35.457  -7.726  1.00  0.00    -0.000 C 
BRANCH  30  31
ATOM     31  C   UNL     1       4.192  33.926  -7.684  1.00  0.00    -0.003 C 
ATOM     32  C   UNL     1       5.639  33.472  -7.855  1.00  0.00     0.004 C 
ENDBRANCH  30  31
ENDBRANCH  29  30
ENDBRANCH  28  29
ENDBRANCH  27  28
ENDBRANCH  26  27
ENDBRANCH  25  26
ENDBRANCH  24  25
ENDBRANCH  23  24
ENDBRANCH  22  23
ENDBRANCH  21  22
ENDBRANCH  20  21
ENDBRANCH  19  20
ENDBRANCH  18  19
ENDBRANCH   1  18
TORSDOF 28
ENDMDL
MODEL 7
REMARK VINA RESULT:    -4.274      3.385      8.687
REMARK INTER + INTRA:         -15.925
REMARK INTER:                 -11.916
REMARK INTRA:                  -4.009
REMARK UNBOUND:                -4.655
REMARK SMILES CCCCCCCCCCCCCCCCCCCCCCCCCCCCCC(=O)[O-]
REMARK SMILES IDX 16 1 17 2 18 3 19 4 20 5 21 6 22 7 23 8 24 9 25 10 26 11
REMARK SMILES IDX 27 12 28 13 29 14 30 15 31 16 32 17 15 18 14 19 13 20 12 21
REMARK SMILES IDX 11 22 10 23 9 24 8 25 7 26 6 27 5 28 4 29 3 30 2 31 1 32
REMARK H PARENT
REMARK Flexibility Score: inf
ROOT
ATOM      1  C   UNL     1       6.719  33.701  -9.955  1.00  0.00     0.000 C 
ENDROOT
BRANCH   1   2
ATOM      2  C   UNL     1       6.639  35.043 -10.705  1.00  0.00     0.000 C 
BRANCH   2   3
ATOM      3  C   UNL     1       7.191  34.960 -12.135  1.00  0.00     0.000 C 
BRANCH   3   4
ATOM      4  C   UNL     1       8.541  34.233 -12.166  1.00  0.00     0.000 C 
BRANCH   4   5
ATOM      5  C   UNL     1       8.503  33.055 -13.151  1.00  0.00     0.000 C 
BRANCH   5   6
ATOM      6  C   UNL     1       8.501  31.688 -12.450  1.00  0.00     0.000 C 
BRANCH   6   7
ATOM      7  C   UNL     1       7.285  30.828 -12.833  1.00  0.00     0.000 C 
BRANCH   7   8
ATOM      8  C   UNL     1       7.465  30.106 -14.181  1.00  0.00     0.000 C 
BRANCH   8   9
ATOM      9  C   UNL     1       6.954  28.651 -14.219  1.00  0.00     0.000 C 
BRANCH   9  10
ATOM     10  C   UNL     1       7.444  27.757 -13.062  1.00  0.00     0.000 C 
BRANCH  10  11
ATOM     11  C   UNL     1       8.975  27.682 -12.900  1.00  0.00     0.000 C 
BRANCH  11  12
ATOM     12  C   UNL     1       9.636  26.465 -13.571  1.00  0.00     0.000 C 
BRANCH  12  13
ATOM     13  C   UNL     1       9.868  25.300 -12.597  1.00  0.00     0.006 C 
BRANCH  13  14
ATOM     14  C   UNL     1       8.839  24.186 -12.816  1.00  0.00     0.053 C 
BRANCH  14  15
ATOM     15  C   UNL     1       7.824  24.181 -11.715  1.00  0.00     0.041 C 
ATOM     16  O   UNL     1       6.596  24.244 -11.985  1.00  0.00    -0.550 OA
ATOM     17  O   UNL     1       8.234  24.070 -10.390  1.00  0.00    -0.550 OA
ENDBRANCH  14  15
ENDBRANCH  13  14
ENDBRANCH  12  13
ENDBRANCH  11  12
ENDBRANCH  10  11
ENDBRANCH   9  10
ENDBRANCH   8   9
ENDBRANCH   7   8
ENDBRANCH   6   7
ENDBRANCH   5   6
ENDBRANCH   4   5
ENDBRANCH   3   4
ENDBRANCH   2   3
ENDBRANCH   1   2
BRANCH   1  18
ATOM     18  C   UNL     1       6.446  33.783  -8.438  1.00  0.00     0.000 C 
BRANCH  18  19
ATOM     19  C   UNL     1       5.090  33.210  -7.987  1.00  0.00     0.000 C 
BRANCH  19  20
ATOM     20  C   UNL     1       4.305  34.096  -7.000  1.00  0.00     0.000 C 
BRANCH  20  21
ATOM     21  C   UNL     1       3.584  35.286  -7.669  1.00  0.00     0.000 C 
BRANCH  21  22
ATOM     22  C   UNL     1       2.368  34.843  -8.502  1.00  0.00     0.000 C 
BRANCH  22  23
ATOM     23  C   UNL     1       2.120  35.753  -9.715  1.00  0.00     0.000 C 
BRANCH  23  24
ATOM     24  C   UNL     1       1.802  34.953 -10.991  1.00  0.00    -0.000 C 
BRANCH  24  25
ATOM     25  C   UNL     1       2.931  33.987 -11.386  1.00  0.00    -0.000 C 
BRANCH  25  26
ATOM     26  C   UNL     1       3.508  34.202 -12.798  1.00  0.00    -0.000 C 
BRANCH  26  27
ATOM     27  C   UNL     1       4.307  32.995 -13.334  1.00  0.00    -0.000 C 
BRANCH  27  28
ATOM     28  C   UNL     1       5.100  33.342 -14.606  1.00  0.00    -0.000 C 
BRANCH  28  29
ATOM     29  C   UNL     1       5.175  32.168 -15.596  1.00  0.00    -0.000 C 
BRANCH  29  30
ATOM     30  C   UNL     1       5.772  32.578 -16.950  1.00  0.00    -0.000 C 
BRANCH  30  31
ATOM     31  C   UNL     1       6.492  33.929 -16.842  1.00  0.00    -0.003 C 
ATOM     32  C   UNL     1       8.000  33.742 -16.690  1.00  0.00     0.004 C 
ENDBRANCH  30  31
ENDBRANCH  29  30
ENDBRANCH  28  29
ENDBRANCH  27  28
ENDBRANCH  26  27
ENDBRANCH  25  26
ENDBRANCH  24  25
ENDBRANCH  23  24
ENDBRANCH  22  23
ENDBRANCH  21  22
ENDBRANCH  20  21
ENDBRANCH  19  20
ENDBRANCH  18  19
ENDBRANCH   1  18
TORSDOF 28
ENDMDL
MODEL 8
REMARK VINA RESULT:    -4.261      4.592      7.132
REMARK INTER + INTRA:         -15.890
REMARK INTER:                 -11.207
REMARK INTRA:                  -4.683
REMARK UNBOUND:                -4.655
REMARK SMILES CCCCCCCCCCCCCCCCCCCCCCCCCCCCCC(=O)[O-]
REMARK SMILES IDX 16 1 17 2 18 3 19 4 20 5 21 6 22 7 23 8 24 9 25 10 26 11
REMARK SMILES IDX 27 12 28 13 29 14 30 15 31 16 32 17 15 18 14 19 13 20 12 21
REMARK SMILES IDX 11 22 10 23 9 24 8 25 7 26 6 27 5 28 4 29 3 30 2 31 1 32
REMARK H PARENT
REMARK Flexibility Score: inf
ROOT
ATOM      1  C   UNL     1       3.627  33.006 -14.040  1.00  0.00     0.000 C 
ENDROOT
BRANCH   1   2
ATOM      2  C   UNL     1       3.708  34.441 -14.591  1.00  0.00     0.000 C 
BRANCH   2   3
ATOM      3  C   UNL     1       3.082  34.580 -15.986  1.00  0.00     0.000 C 
BRANCH   3   4
ATOM      4  C   UNL     1       3.344  35.971 -16.575  1.00  0.00     0.000 C 
BRANCH   4   5
ATOM      5  C   UNL     1       3.770  35.869 -18.047  1.00  0.00     0.000 C 
BRANCH   5   6
ATOM      6  C   UNL     1       3.625  34.449 -18.615  1.00  0.00     0.000 C 
BRANCH   6   7
ATOM      7  C   UNL     1       2.829  34.418 -19.931  1.00  0.00     0.000 C 
BRANCH   7   8
ATOM      8  C   UNL     1       1.535  35.250 -19.867  1.00  0.00     0.000 C 
BRANCH   8   9
ATOM      9  C   UNL     1       0.281  34.479 -19.407  1.00  0.00     0.000 C 
BRANCH   9  10
ATOM     10  C   UNL     1      -0.184  34.787 -17.969  1.00  0.00     0.000 C 
BRANCH  10  11
ATOM     11  C   UNL     1      -1.479  34.070 -17.536  1.00  0.00     0.000 C 
BRANCH  11  12
ATOM     12  C   UNL     1      -1.687  32.679 -18.161  1.00  0.00     0.000 C 
BRANCH  12  13
ATOM     13  C   UNL     1      -3.107  32.479 -18.710  1.00  0.00     0.006 C 
BRANCH  13  14
ATOM     14  C   UNL     1      -4.000  31.775 -17.683  1.00  0.00     0.053 C 
BRANCH  14  15
ATOM     15  C   UNL     1      -5.073  32.697 -17.195  1.00  0.00     0.041 C 
ATOM     16  O   UNL     1      -5.976  32.270 -16.428  1.00  0.00    -0.550 OA
ATOM     17  O   UNL     1      -5.055  34.041 -17.558  1.00  0.00    -0.550 OA
ENDBRANCH  14  15
ENDBRANCH  13  14
ENDBRANCH  12  13
ENDBRANCH  11  12
ENDBRANCH  10  11
ENDBRANCH   9  10
ENDBRANCH   8   9
ENDBRANCH   7   8
ENDBRANCH   6   7
ENDBRANCH   5   6
ENDBRANCH   4   5
ENDBRANCH   3   4
ENDBRANCH   2   3
ENDBRANCH   1   2
BRANCH   1  18
ATOM     18  C   UNL     1       4.987  32.304 -13.841  1.00  0.00     0.000 C 
BRANCH  18  19
ATOM     19  C   UNL     1       5.175  31.004 -14.643  1.00  0.00     0.000 C 
BRANCH  19  20
ATOM     20  C   UNL     1       6.145  31.110 -15.835  1.00  0.00     0.000 C 
BRANCH  20  21
ATOM     21  C   UNL     1       5.804  32.253 -16.816  1.00  0.00     0.000 C 
BRANCH  21  22
ATOM     22  C   UNL     1       6.990  33.209 -17.036  1.00  0.00     0.000 C 
BRANCH  22  23
ATOM     23  C   UNL     1       6.957  34.419 -16.088  1.00  0.00     0.000 C 
BRANCH  23  24
ATOM     24  C   UNL     1       7.943  34.270 -14.916  1.00  0.00    -0.000 C 
BRANCH  24  25
ATOM     25  C   UNL     1       9.133  33.356 -15.251  1.00  0.00    -0.000 C 
BRANCH  25  26
ATOM     26  C   UNL     1       9.574  32.416 -14.113  1.00  0.00    -0.000 C 
BRANCH  26  27
ATOM     27  C   UNL     1       8.461  32.123 -13.084  1.00  0.00    -0.000 C 
BRANCH  27  28
ATOM     28  C   UNL     1       8.355  30.622 -12.756  1.00  0.00    -0.000 C 
BRANCH  28  29
ATOM     29  C   UNL     1       9.283  29.760 -13.627  1.00  0.00    -0.000 C 
BRANCH  29  30
ATOM     30  C   UNL     1       8.779  28.317 -13.772  1.00  0.00    -0.000 C 
BRANCH  30  31
ATOM     31  C   UNL     1       7.389  28.158 -13.142  1.00  0.00    -0.003 C 
ATOM     32  C   UNL     1       6.965  26.692 -13.098  1.00  0.00     0.004 C 
ENDBRANCH  30  31
ENDBRANCH  29  30
ENDBRANCH  28  29
ENDBRANCH  27  28
ENDBRANCH  26  27
ENDBRANCH  25  26
ENDBRANCH  24  25
ENDBRANCH  23  24
ENDBRANCH  22  23
ENDBRANCH  21  22
ENDBRANCH  20  21
ENDBRANCH  19  20
ENDBRANCH  18  19
ENDBRANCH   1  18
TORSDOF 28
ENDMDL
MODEL 9
REMARK VINA RESULT:    -4.228      3.202      7.866
REMARK INTER + INTRA:         -15.805
REMARK INTER:                 -10.667
REMARK INTRA:                  -5.138
REMARK UNBOUND:                -4.655
REMARK SMILES CCCCCCCCCCCCCCCCCCCCCCCCCCCCCC(=O)[O-]
REMARK SMILES IDX 16 1 17 2 18 3 19 4 20 5 21 6 22 7 23 8 24 9 25 10 26 11
REMARK SMILES IDX 27 12 28 13 29 14 30 15 31 16 32 17 15 18 14 19 13 20 12 21
REMARK SMILES IDX 11 22 10 23 9 24 8 25 7 26 6 27 5 28 4 29 3 30 2 31 1 32
REMARK H PARENT
REMARK Flexibility Score: inf
ROOT
ATOM      1  C   UNL     1       3.870  33.592 -14.169  1.00  0.00     0.000 C 
ENDROOT
BRANCH   1   2
ATOM      2  C   UNL     1       4.432  32.225 -14.596  1.00  0.00     0.000 C 
BRANCH   2   3
ATOM      3  C   UNL     1       5.141  32.270 -15.957  1.00  0.00     0.000 C 
BRANCH   3   4
ATOM      4  C   UNL     1       6.180  31.149 -16.077  1.00  0.00     0.000 C 
BRANCH   4   5
ATOM      5  C   UNL     1       5.877  30.015 -15.087  1.00  0.00     0.000 C 
BRANCH   5   6
ATOM      6  C   UNL     1       6.975  28.942 -15.050  1.00  0.00     0.000 C 
BRANCH   6   7
ATOM      7  C   UNL     1       7.099  28.269 -13.673  1.00  0.00     0.000 C 
BRANCH   7   8
ATOM      8  C   UNL     1       8.227  28.870 -12.814  1.00  0.00     0.000 C 
BRANCH   8   9
ATOM      9  C   UNL     1       9.511  29.240 -13.583  1.00  0.00     0.000 C 
BRANCH   9  10
ATOM     10  C   UNL     1      10.575  28.125 -13.651  1.00  0.00     0.000 C 
BRANCH  10  11
ATOM     11  C   UNL     1      10.368  27.096 -14.781  1.00  0.00     0.000 C 
BRANCH  11  12
ATOM     12  C   UNL     1      10.538  25.626 -14.354  1.00  0.00     0.000 C 
BRANCH  12  13
ATOM     13  C   UNL     1       9.285  25.055 -13.674  1.00  0.00     0.006 C 
BRANCH  13  14
ATOM     14  C   UNL     1       9.459  25.004 -12.153  1.00  0.00     0.053 C 
BRANCH  14  15
ATOM     15  C   UNL     1       8.339  24.241 -11.518  1.00  0.00     0.041 C 
ATOM     16  O   UNL     1       8.546  23.554 -10.483  1.00  0.00    -0.550 OA
ATOM     17  O   UNL     1       7.055  24.318 -12.048  1.00  0.00    -0.550 OA
ENDBRANCH  14  15
ENDBRANCH  13  14
ENDBRANCH  12  13
ENDBRANCH  11  12
ENDBRANCH  10  11
ENDBRANCH   9  10
ENDBRANCH   8   9
ENDBRANCH   7   8
ENDBRANCH   6   7
ENDBRANCH   5   6
ENDBRANCH   4   5
ENDBRANCH   3   4
ENDBRANCH   2   3
ENDBRANCH   1   2
BRANCH   1  18
ATOM     18  C   UNL     1       4.551  34.813 -14.823  1.00  0.00     0.000 C 
BRANCH  18  19
ATOM     19  C   UNL     1       5.654  35.476 -13.979  1.00  0.00     0.000 C 
BRANCH  19  20
ATOM     20  C   UNL     1       6.657  36.332 -14.776  1.00  0.00     0.000 C 
BRANCH  20  21
ATOM     21  C   UNL     1       6.859  35.861 -16.233  1.00  0.00     0.000 C 
BRANCH  21  22
ATOM     22  C   UNL     1       7.781  34.632 -16.330  1.00  0.00     0.000 C 
BRANCH  22  23
ATOM     23  C   UNL     1       9.226  34.944 -15.911  1.00  0.00     0.000 C 
BRANCH  23  24
ATOM     24  C   UNL     1       9.676  34.112 -14.696  1.00  0.00    -0.000 C 
BRANCH  24  25
ATOM     25  C   UNL     1       8.658  33.026 -14.309  1.00  0.00    -0.000 C 
BRANCH  25  26
ATOM     26  C   UNL     1       8.532  32.761 -12.796  1.00  0.00    -0.000 C 
BRANCH  26  27
ATOM     27  C   UNL     1       7.139  32.252 -12.368  1.00  0.00    -0.000 C 
BRANCH  27  28
ATOM     28  C   UNL     1       6.478  33.176 -11.329  1.00  0.00    -0.000 C 
BRANCH  28  29
ATOM     29  C   UNL     1       5.125  32.640 -10.836  1.00  0.00    -0.000 C 
BRANCH  29  30
ATOM     30  C   UNL     1       4.138  33.764 -10.491  1.00  0.00    -0.000 C 
BRANCH  30  31
ATOM     31  C   UNL     1       4.478  34.390  -9.132  1.00  0.00    -0.003 C 
ATOM     32  C   UNL     1       4.447  35.915  -9.202  1.00  0.00     0.004 C 
ENDBRANCH  30  31
ENDBRANCH  29  30
ENDBRANCH  28  29
ENDBRANCH  27  28
ENDBRANCH  26  27
ENDBRANCH  25  26
ENDBRANCH  24  25
ENDBRANCH  23  24
ENDBRANCH  22  23
ENDBRANCH  21  22
ENDBRANCH  20  21
ENDBRANCH  19  20
ENDBRANCH  18  19
ENDBRANCH   1  18
TORSDOF 28
ENDMDL
