MODEL 1
REMARK VINA RESULT:    -8.432      0.000      0.000
REMARK INTER + INTRA:         -13.753
REMARK INTER:                 -12.376
REMARK INTRA:                  -1.377
REMARK UNBOUND:                -1.377
REMARK SMILES O=c1c(O[C@H]2O[C@H](CO)[C@@H](O)[C@@H](O)[C@@H]2O)c(-c2ccc(O)c(O)c2)oc2cc(O)cc(O)c12
REMARK SMILES IDX 4 1 3 2 16 3 25 4 2 5 26 6 1 7 33 8 27 9 31 10 28 11 30 12
REMARK SMILES IDX 17 13 18 14 19 15 20 16 24 17 22 18 21 19 23 21 32 23 29 25
REMARK SMILES IDX 5 27 14 28 6 29 12 30 7 31 10 32 15 33 13 35 8 37 9 38 11 40
REMARK H PARENT 21 20 23 22 32 24 29 26 15 34 13 36 9 39 11 41
REMARK Flexibility Score: inf
ROOT
ATOM      1  O   UNL     1       3.195  -2.270  16.611  1.00  0.00    -0.454 OA
ENDROOT
BRANCH   1   2
ATOM      2  C   UNL     1       3.311  -3.168  17.696  1.00  0.00     0.214 A 
ATOM      3  C   UNL     1       4.627  -3.491  18.146  1.00  0.00     0.180 A 
ATOM      4  O   UNL     1       4.801  -4.427  19.099  1.00  0.00    -0.452 OA
ATOM      5  C   UNL     1       2.250  -3.697  18.464  1.00  0.00     0.239 A 
ATOM      6  C   UNL     1       3.835  -4.654  19.985  1.00  0.00     0.146 A 
ATOM      7  O   UNL     1       1.151  -3.992  17.956  1.00  0.00    -0.285 OA
ATOM      8  C   UNL     1       2.529  -4.131  19.769  1.00  0.00     0.111 A 
ATOM      9  C   UNL     1       4.110  -5.393  21.144  1.00  0.00     0.094 A 
ATOM     10  C   UNL     1       1.587  -4.172  20.816  1.00  0.00     0.134 A 
ATOM     11  C   UNL     1       3.183  -5.444  22.195  1.00  0.00     0.123 A 
ATOM     12  C   UNL     1       1.932  -4.808  22.047  1.00  0.00     0.093 A 
BRANCH   3  13
ATOM     13  C   UNL     1       5.715  -2.552  17.940  1.00  0.00     0.025 A 
ATOM     14  C   UNL     1       6.644  -2.683  16.853  1.00  0.00     0.016 A 
ATOM     15  C   UNL     1       7.886  -2.029  16.955  1.00  0.00     0.051 A 
ATOM     16  C   UNL     1       8.242  -1.332  18.106  1.00  0.00     0.157 A 
ATOM     17  C   UNL     1       6.053  -1.831  19.089  1.00  0.00     0.062 A 
ATOM     18  C   UNL     1       7.284  -1.182  19.169  1.00  0.00     0.158 A 
BRANCH  16  19
ATOM     19  O   UNL     1       9.540  -0.849  18.274  1.00  0.00    -0.504 OA
ATOM     20  H   UNL     1      10.359  -1.396  17.980  1.00  0.00     0.293 HD
ENDBRANCH  16  19
BRANCH  18  21
ATOM     21  O   UNL     1       7.631  -0.575  20.361  1.00  0.00    -0.504 OA
ATOM     22  H   UNL     1       7.412  -1.030  21.222  1.00  0.00     0.293 HD
ENDBRANCH  18  21
ENDBRANCH   3  13
BRANCH  10  23
ATOM     23  O   UNL     1       0.375  -3.465  20.711  1.00  0.00    -0.507 OA
ATOM     24  H   UNL     1       0.265  -2.782  19.981  1.00  0.00     0.293 HD
ENDBRANCH  10  23
BRANCH  11  25
ATOM     25  O   UNL     1       3.543  -6.121  23.368  1.00  0.00    -0.508 OA
ATOM     26  H   UNL     1       3.206  -5.722  24.223  1.00  0.00     0.293 HD
ENDBRANCH  11  25
ENDBRANCH   1   2
BRANCH   1  27
ATOM     27  C   UNL     1       3.410  -2.614  15.215  1.00  0.00     0.339 C 
ATOM     28  C   UNL     1       3.858  -1.410  14.342  1.00  0.00     0.214 C 
ATOM     29  O   UNL     1       2.246  -3.243  14.633  1.00  0.00    -0.332 OA
ATOM     30  C   UNL     1       2.729  -0.376  14.313  1.00  0.00     0.180 C 
ATOM     31  C   UNL     1       1.142  -2.361  14.479  1.00  0.00     0.179 C 
ATOM     32  C   UNL     1       1.507  -1.042  13.714  1.00  0.00     0.177 C 
BRANCH  28  33
ATOM     33  O   UNL     1       4.187  -1.863  13.075  1.00  0.00    -0.384 OA
ATOM     34  H   UNL     1       3.340  -2.273  12.775  1.00  0.00     0.211 HD
ENDBRANCH  28  33
BRANCH  30  35
ATOM     35  O   UNL     1       2.400   0.079  15.635  1.00  0.00    -0.387 OA
ATOM     36  H   UNL     1       2.337  -0.740  16.198  1.00  0.00     0.211 HD
ENDBRANCH  30  35
BRANCH  31  37
ATOM     37  C   UNL     1       0.059  -3.129  13.687  1.00  0.00     0.191 C 
BRANCH  37  38
ATOM     38  O   UNL     1      -0.056  -4.466  14.135  1.00  0.00    -0.394 OA
ATOM     39  H   UNL     1       0.406  -4.565  14.990  1.00  0.00     0.210 HD
ENDBRANCH  37  38
ENDBRANCH  31  37
BRANCH  32  40
ATOM     40  O   UNL     1       0.496  -0.068  13.765  1.00  0.00    -0.387 OA
ATOM     41  H   UNL     1      -0.321  -0.484  14.088  1.00  0.00     0.211 HD
ENDBRANCH  32  40
ENDBRANCH   1  27
TORSDOF 12
ENDMDL
MODEL 2
REMARK VINA RESULT:    -8.206      1.301      2.084
REMARK INTER + INTRA:         -13.420
REMARK INTER:                 -11.959
REMARK INTRA:                  -1.461
REMARK UNBOUND:                -1.377
REMARK SMILES O=c1c(O[C@H]2O[C@H](CO)[C@@H](O)[C@@H](O)[C@@H]2O)c(-c2ccc(O)c(O)c2)oc2cc(O)cc(O)c12
REMARK SMILES IDX 4 1 3 2 16 3 25 4 2 5 26 6 1 7 33 8 27 9 31 10 28 11 30 12
REMARK SMILES IDX 17 13 18 14 19 15 20 16 24 17 22 18 21 19 23 21 32 23 29 25
REMARK SMILES IDX 5 27 14 28 6 29 12 30 7 31 10 32 15 33 13 35 8 37 9 38 11 40
REMARK H PARENT 21 20 23 22 32 24 29 26 15 34 13 36 9 39 11 41
REMARK Flexibility Score: inf
ROOT
ATOM      1  O   UNL     1       3.202  -3.037  16.657  1.00  0.00    -0.454 OA
ENDROOT
BRANCH   1   2
ATOM      2  C   UNL     1       3.187  -3.359  18.033  1.00  0.00     0.214 A 
ATOM      3  C   UNL     1       4.434  -3.344  18.728  1.00  0.00     0.180 A 
ATOM      4  O   UNL     1       4.496  -3.754  20.009  1.00  0.00    -0.452 OA
ATOM      5  C   UNL     1       2.042  -3.587  18.829  1.00  0.00     0.239 A 
ATOM      6  C   UNL     1       3.422  -3.652  20.786  1.00  0.00     0.146 A 
ATOM      7  O   UNL     1       1.033  -4.165  18.381  1.00  0.00    -0.285 OA
ATOM      8  C   UNL     1       2.147  -3.386  20.213  1.00  0.00     0.111 A 
ATOM      9  C   UNL     1       3.550  -3.787  22.176  1.00  0.00     0.094 A 
ATOM     10  C   UNL     1       1.069  -3.046  21.054  1.00  0.00     0.134 A 
ATOM     11  C   UNL     1       2.487  -3.452  23.027  1.00  0.00     0.123 A 
ATOM     12  C   UNL     1       1.254  -3.051  22.470  1.00  0.00     0.093 A 
BRANCH   3  13
ATOM     13  C   UNL     1       5.518  -2.501  18.253  1.00  0.00     0.025 A 
ATOM     14  C   UNL     1       6.271  -2.814  17.071  1.00  0.00     0.016 A 
ATOM     15  C   UNL     1       7.539  -2.227  16.913  1.00  0.00     0.051 A 
ATOM     16  C   UNL     1       8.089  -1.421  17.906  1.00  0.00     0.157 A 
ATOM     17  C   UNL     1       6.050  -1.671  19.243  1.00  0.00     0.062 A 
ATOM     18  C   UNL     1       7.306  -1.090  19.067  1.00  0.00     0.158 A 
BRANCH  16  19
ATOM     19  O   UNL     1       9.417  -0.998  17.827  1.00  0.00    -0.504 OA
ATOM     20  H   UNL     1       9.829  -0.387  18.542  1.00  0.00     0.293 HD
ENDBRANCH  16  19
BRANCH  18  21
ATOM     21  O   UNL     1       7.849  -0.368  20.112  1.00  0.00    -0.504 OA
ATOM     22  H   UNL     1       7.493   0.544  20.312  1.00  0.00     0.293 HD
ENDBRANCH  18  21
ENDBRANCH   3  13
BRANCH  10  23
ATOM     23  O   UNL     1      -0.133  -2.558  20.509  1.00  0.00    -0.507 OA
ATOM     24  H   UNL     1      -0.695  -1.921  21.048  1.00  0.00     0.293 HD
ENDBRANCH  10  23
BRANCH  11  25
ATOM     25  O   UNL     1       2.695  -3.519  24.411  1.00  0.00    -0.508 OA
ATOM     26  H   UNL     1       2.730  -4.440  24.804  1.00  0.00     0.293 HD
ENDBRANCH  11  25
ENDBRANCH   1   2
BRANCH   1  27
ATOM     27  C   UNL     1       2.900  -1.728  16.102  1.00  0.00     0.339 C 
ATOM     28  C   UNL     1       1.380  -1.417  16.040  1.00  0.00     0.214 C 
ATOM     29  O   UNL     1       3.497  -1.548  14.797  1.00  0.00    -0.332 OA
ATOM     30  C   UNL     1       0.714  -2.404  15.078  1.00  0.00     0.180 C 
ATOM     31  C   UNL     1       2.910  -2.360  13.789  1.00  0.00     0.179 C 
ATOM     32  C   UNL     1       1.351  -2.223  13.714  1.00  0.00     0.177 C 
BRANCH  28  33
ATOM     33  O   UNL     1       1.199  -0.101  15.648  1.00  0.00    -0.384 OA
ATOM     34  H   UNL     1       0.925   0.332  16.492  1.00  0.00     0.211 HD
ENDBRANCH  28  33
BRANCH  30  35
ATOM     35  O   UNL     1       0.915  -3.763  15.498  1.00  0.00    -0.387 OA
ATOM     36  H   UNL     1       0.054  -4.233  15.325  1.00  0.00     0.211 HD
ENDBRANCH  30  35
BRANCH  31  37
ATOM     37  C   UNL     1       3.528  -1.921  12.441  1.00  0.00     0.191 C 
BRANCH  37  38
ATOM     38  O   UNL     1       3.575  -2.994  11.521  1.00  0.00    -0.394 OA
ATOM     39  H   UNL     1       3.631  -2.642  10.611  1.00  0.00     0.210 HD
ENDBRANCH  37  38
ENDBRANCH  31  37
BRANCH  32  40
ATOM     40  O   UNL     1       0.743  -3.187  12.894  1.00  0.00    -0.387 OA
ATOM     41  H   UNL     1       1.394  -3.497  12.242  1.00  0.00     0.211 HD
ENDBRANCH  32  40
ENDBRANCH   1  27
TORSDOF 12
ENDMDL
MODEL 3
REMARK VINA RESULT:    -7.618      1.530      6.473
REMARK INTER + INTRA:         -12.557
REMARK INTER:                 -11.041
REMARK INTRA:                  -1.516
REMARK UNBOUND:                -1.377
REMARK SMILES O=c1c(O[C@H]2O[C@H](CO)[C@@H](O)[C@@H](O)[C@@H]2O)c(-c2ccc(O)c(O)c2)oc2cc(O)cc(O)c12
REMARK SMILES IDX 4 1 3 2 16 3 25 4 2 5 26 6 1 7 33 8 27 9 31 10 28 11 30 12
REMARK SMILES IDX 17 13 18 14 19 15 20 16 24 17 22 18 21 19 23 21 32 23 29 25
REMARK SMILES IDX 5 27 14 28 6 29 12 30 7 31 10 32 15 33 13 35 8 37 9 38 11 40
REMARK H PARENT 21 20 23 22 32 24 29 26 15 34 13 36 9 39 11 41
REMARK Flexibility Score: inf
ROOT
ATOM      1  O   UNL     1       3.109  -3.636  19.184  1.00  0.00    -0.454 OA
ENDROOT
BRANCH   1   2
ATOM      2  C   UNL     1       2.767  -2.849  18.061  1.00  0.00     0.214 A 
ATOM      3  C   UNL     1       3.704  -1.858  17.642  1.00  0.00     0.180 A 
ATOM      4  O   UNL     1       3.382  -1.003  16.652  1.00  0.00    -0.452 OA
ATOM      5  C   UNL     1       1.636  -3.017  17.232  1.00  0.00     0.239 A 
ATOM      6  C   UNL     1       2.504  -1.371  15.724  1.00  0.00     0.146 A 
ATOM      7  O   UNL     1       0.531  -3.373  17.688  1.00  0.00    -0.285 OA
ATOM      8  C   UNL     1       1.698  -2.528  15.919  1.00  0.00     0.111 A 
ATOM      9  C   UNL     1       2.386  -0.629  14.540  1.00  0.00     0.094 A 
ATOM     10  C   UNL     1       0.952  -3.041  14.839  1.00  0.00     0.134 A 
ATOM     11  C   UNL     1       1.648  -1.125  13.457  1.00  0.00     0.123 A 
ATOM     12  C   UNL     1       0.954  -2.346  13.592  1.00  0.00     0.093 A 
BRANCH   3  13
ATOM     13  C   UNL     1       5.117  -2.027  17.932  1.00  0.00     0.025 A 
ATOM     14  C   UNL     1       5.732  -1.469  19.103  1.00  0.00     0.016 A 
ATOM     15  C   UNL     1       7.128  -1.296  19.106  1.00  0.00     0.051 A 
ATOM     16  C   UNL     1       7.893  -1.586  17.979  1.00  0.00     0.157 A 
ATOM     17  C   UNL     1       5.880  -2.347  16.805  1.00  0.00     0.062 A 
ATOM     18  C   UNL     1       7.265  -2.178  16.828  1.00  0.00     0.158 A 
BRANCH  16  19
ATOM     19  O   UNL     1       9.243  -1.236  17.925  1.00  0.00    -0.504 OA
ATOM     20  H   UNL     1       9.746  -0.907  18.757  1.00  0.00     0.293 HD
ENDBRANCH  16  19
BRANCH  18  21
ATOM     21  O   UNL     1       7.973  -2.397  15.663  1.00  0.00    -0.504 OA
ATOM     22  H   UNL     1       7.581  -2.984  14.956  1.00  0.00     0.293 HD
ENDBRANCH  18  21
ENDBRANCH   3  13
BRANCH  10  23
ATOM     23  O   UNL     1       0.333  -4.301  14.936  1.00  0.00    -0.507 OA
ATOM     24  H   UNL     1      -0.670  -4.359  14.916  1.00  0.00     0.293 HD
ENDBRANCH  10  23
BRANCH  11  25
ATOM     25  O   UNL     1       1.636  -0.387  12.265  1.00  0.00    -0.508 OA
ATOM     26  H   UNL     1       2.114   0.493  12.291  1.00  0.00     0.293 HD
ENDBRANCH  11  25
ENDBRANCH   1   2
BRANCH   1  27
ATOM     27  C   UNL     1       2.843  -3.279  20.568  1.00  0.00     0.339 C 
ATOM     28  C   UNL     1       4.029  -3.577  21.525  1.00  0.00     0.214 C 
ATOM     29  O   UNL     1       1.638  -3.908  21.062  1.00  0.00    -0.332 OA
ATOM     30  C   UNL     1       4.268  -5.089  21.558  1.00  0.00     0.180 C 
ATOM     31  C   UNL     1       1.754  -5.316  21.212  1.00  0.00     0.179 C 
ATOM     32  C   UNL     1       2.999  -5.746  22.063  1.00  0.00     0.177 C 
BRANCH  28  33
ATOM     33  O   UNL     1       3.744  -3.064  22.779  1.00  0.00    -0.384 OA
ATOM     34  H   UNL     1       3.263  -2.230  22.557  1.00  0.00     0.211 HD
ENDBRANCH  28  33
BRANCH  30  35
ATOM     35  O   UNL     1       4.558  -5.604  20.249  1.00  0.00    -0.387 OA
ATOM     36  H   UNL     1       5.541  -5.760  20.228  1.00  0.00     0.211 HD
ENDBRANCH  30  35
BRANCH  31  37
ATOM     37  C   UNL     1       0.463  -5.803  21.911  1.00  0.00     0.191 C 
BRANCH  37  38
ATOM     38  O   UNL     1       0.149  -7.133  21.546  1.00  0.00    -0.394 OA
ATOM     39  H   UNL     1      -0.819  -7.223  21.443  1.00  0.00     0.210 HD
ENDBRANCH  37  38
ENDBRANCH  31  37
BRANCH  32  40
ATOM     40  O   UNL     1       3.257  -7.126  22.019  1.00  0.00    -0.387 OA
ATOM     41  H   UNL     1       4.131  -7.266  21.616  1.00  0.00     0.211 HD
ENDBRANCH  32  40
ENDBRANCH   1  27
TORSDOF 12
ENDMDL
MODEL 4
REMARK VINA RESULT:    -7.528      2.109      6.431
REMARK INTER + INTRA:         -12.426
REMARK INTER:                 -11.290
REMARK INTRA:                  -1.135
REMARK UNBOUND:                -1.377
REMARK SMILES O=c1c(O[C@H]2O[C@H](CO)[C@@H](O)[C@@H](O)[C@@H]2O)c(-c2ccc(O)c(O)c2)oc2cc(O)cc(O)c12
REMARK SMILES IDX 4 1 3 2 16 3 25 4 2 5 26 6 1 7 33 8 27 9 31 10 28 11 30 12
REMARK SMILES IDX 17 13 18 14 19 15 20 16 24 17 22 18 21 19 23 21 32 23 29 25
REMARK SMILES IDX 5 27 14 28 6 29 12 30 7 31 10 32 15 33 13 35 8 37 9 38 11 40
REMARK H PARENT 21 20 23 22 32 24 29 26 15 34 13 36 9 39 11 41
REMARK Flexibility Score: inf
ROOT
ATOM      1  O   UNL     1       1.747  -2.574  19.125  1.00  0.00    -0.454 OA
ENDROOT
BRANCH   1   2
ATOM      2  C   UNL     1       2.276  -2.273  17.850  1.00  0.00     0.214 A 
ATOM      3  C   UNL     1       3.688  -2.398  17.676  1.00  0.00     0.180 A 
ATOM      4  O   UNL     1       4.260  -2.014  16.518  1.00  0.00    -0.452 OA
ATOM      5  C   UNL     1       1.537  -1.968  16.686  1.00  0.00     0.239 A 
ATOM      6  C   UNL     1       3.553  -2.044  15.393  1.00  0.00     0.146 A 
ATOM      7  O   UNL     1       0.482  -1.306  16.729  1.00  0.00    -0.285 OA
ATOM      8  C   UNL     1       2.138  -2.199  15.439  1.00  0.00     0.111 A 
ATOM      9  C   UNL     1       4.204  -1.942  14.155  1.00  0.00     0.094 A 
ATOM     10  C   UNL     1       1.433  -2.467  14.249  1.00  0.00     0.134 A 
ATOM     11  C   UNL     1       3.517  -2.205  12.962  1.00  0.00     0.123 A 
ATOM     12  C   UNL     1       2.137  -2.499  13.008  1.00  0.00     0.093 A 
BRANCH   3  13
ATOM     13  C   UNL     1       4.443  -3.315  18.511  1.00  0.00     0.025 A 
ATOM     14  C   UNL     1       3.956  -4.625  18.845  1.00  0.00     0.016 A 
ATOM     15  C   UNL     1       4.501  -5.272  19.969  1.00  0.00     0.051 A 
ATOM     16  C   UNL     1       5.436  -4.638  20.784  1.00  0.00     0.157 A 
ATOM     17  C   UNL     1       5.401  -2.682  19.307  1.00  0.00     0.062 A 
ATOM     18  C   UNL     1       5.938  -3.342  20.413  1.00  0.00     0.158 A 
BRANCH  16  19
ATOM     19  O   UNL     1       5.829  -5.210  21.994  1.00  0.00    -0.504 OA
ATOM     20  H   UNL     1       5.971  -6.222  22.089  1.00  0.00     0.293 HD
ENDBRANCH  16  19
BRANCH  18  21
ATOM     21  O   UNL     1       6.797  -2.646  21.241  1.00  0.00    -0.504 OA
ATOM     22  H   UNL     1       6.616  -2.624  22.223  1.00  0.00     0.293 HD
ENDBRANCH  18  21
ENDBRANCH   3  13
BRANCH  10  23
ATOM     23  O   UNL     1       0.080  -2.850  14.295  1.00  0.00    -0.507 OA
ATOM     24  H   UNL     1      -0.588  -2.243  14.738  1.00  0.00     0.293 HD
ENDBRANCH  10  23
BRANCH  11  25
ATOM     25  O   UNL     1       4.235  -2.177  11.759  1.00  0.00    -0.508 OA
ATOM     26  H   UNL     1       3.810  -1.670  11.008  1.00  0.00     0.293 HD
ENDBRANCH  11  25
ENDBRANCH   1   2
BRANCH   1  27
ATOM     27  C   UNL     1       0.333  -2.707  19.434  1.00  0.00     0.339 C 
ATOM     28  C   UNL     1      -0.047  -2.174  20.842  1.00  0.00     0.214 C 
ATOM     29  O   UNL     1      -0.123  -4.071  19.280  1.00  0.00    -0.332 OA
ATOM     30  C   UNL     1       0.658  -3.028  21.899  1.00  0.00     0.180 C 
ATOM     31  C   UNL     1       0.405  -4.958  20.257  1.00  0.00     0.179 C 
ATOM     32  C   UNL     1       0.188  -4.459  21.727  1.00  0.00     0.177 C 
BRANCH  28  33
ATOM     33  O   UNL     1      -1.425  -2.199  20.982  1.00  0.00    -0.384 OA
ATOM     34  H   UNL     1      -1.566  -1.600  21.754  1.00  0.00     0.211 HD
ENDBRANCH  28  33
BRANCH  30  35
ATOM     35  O   UNL     1       2.084  -2.994  21.736  1.00  0.00    -0.387 OA
ATOM     36  H   UNL     1       2.328  -3.847  21.284  1.00  0.00     0.211 HD
ENDBRANCH  30  35
BRANCH  31  37
ATOM     37  C   UNL     1      -0.313  -6.315  20.066  1.00  0.00     0.191 C 
BRANCH  37  38
ATOM     38  O   UNL     1      -0.013  -7.210  21.120  1.00  0.00    -0.394 OA
ATOM     39  H   UNL     1       0.927  -7.117  21.369  1.00  0.00     0.210 HD
ENDBRANCH  37  38
ENDBRANCH  31  37
BRANCH  32  40
ATOM     40  O   UNL     1       0.906  -5.198  22.681  1.00  0.00    -0.387 OA
ATOM     41  H   UNL     1       0.940  -4.690  23.509  1.00  0.00     0.211 HD
ENDBRANCH  32  40
ENDBRANCH   1  27
TORSDOF 12
ENDMDL
MODEL 5
REMARK VINA RESULT:    -7.524      2.231      2.991
REMARK INTER + INTRA:         -12.419
REMARK INTER:                 -12.357
REMARK INTRA:                  -0.063
REMARK UNBOUND:                -1.377
REMARK SMILES O=c1c(O[C@H]2O[C@H](CO)[C@@H](O)[C@@H](O)[C@@H]2O)c(-c2ccc(O)c(O)c2)oc2cc(O)cc(O)c12
REMARK SMILES IDX 4 1 3 2 16 3 25 4 2 5 26 6 1 7 33 8 27 9 31 10 28 11 30 12
REMARK SMILES IDX 17 13 18 14 19 15 20 16 24 17 22 18 21 19 23 21 32 23 29 25
REMARK SMILES IDX 5 27 14 28 6 29 12 30 7 31 10 32 15 33 13 35 8 37 9 38 11 40
REMARK H PARENT 21 20 23 22 32 24 29 26 15 34 13 36 9 39 11 41
REMARK Flexibility Score: inf
ROOT
ATOM      1  O   UNL     1       2.666  -1.698  14.725  1.00  0.00    -0.454 OA
ENDROOT
BRANCH   1   2
ATOM      2  C   UNL     1       2.088  -2.090  15.953  1.00  0.00     0.214 A 
ATOM      3  C   UNL     1       2.959  -2.625  16.950  1.00  0.00     0.180 A 
ATOM      4  O   UNL     1       2.448  -3.120  18.094  1.00  0.00    -0.452 OA
ATOM      5  C   UNL     1       0.744  -1.903  16.346  1.00  0.00     0.239 A 
ATOM      6  C   UNL     1       1.289  -2.658  18.553  1.00  0.00     0.146 A 
ATOM      7  O   UNL     1      -0.198  -1.995  15.535  1.00  0.00    -0.285 OA
ATOM      8  C   UNL     1       0.454  -1.864  17.717  1.00  0.00     0.111 A 
ATOM      9  C   UNL     1       0.898  -2.936  19.871  1.00  0.00     0.094 A 
ATOM     10  C   UNL     1      -0.645  -1.186  18.283  1.00  0.00     0.134 A 
ATOM     11  C   UNL     1      -0.193  -2.271  20.447  1.00  0.00     0.123 A 
ATOM     12  C   UNL     1      -0.948  -1.372  19.665  1.00  0.00     0.093 A 
BRANCH   3  13
ATOM     13  C   UNL     1       4.362  -2.250  16.964  1.00  0.00     0.025 A 
ATOM     14  C   UNL     1       5.177  -2.290  15.783  1.00  0.00     0.016 A 
ATOM     15  C   UNL     1       6.574  -2.340  15.938  1.00  0.00     0.051 A 
ATOM     16  C   UNL     1       7.158  -2.422  17.200  1.00  0.00     0.157 A 
ATOM     17  C   UNL     1       4.939  -2.305  18.236  1.00  0.00     0.062 A 
ATOM     18  C   UNL     1       6.327  -2.344  18.372  1.00  0.00     0.158 A 
BRANCH  16  19
ATOM     19  O   UNL     1       8.525  -2.660  17.339  1.00  0.00    -0.504 OA
ATOM     20  H   UNL     1       8.929  -3.588  17.164  1.00  0.00     0.293 HD
ENDBRANCH  16  19
BRANCH  18  21
ATOM     21  O   UNL     1       6.859  -2.511  19.636  1.00  0.00    -0.504 OA
ATOM     22  H   UNL     1       6.864  -3.422  20.046  1.00  0.00     0.293 HD
ENDBRANCH  18  21
ENDBRANCH   3  13
BRANCH  10  23
ATOM     23  O   UNL     1      -1.347  -0.221  17.537  1.00  0.00    -0.507 OA
ATOM     24  H   UNL     1      -2.093   0.292  17.974  1.00  0.00     0.293 HD
ENDBRANCH  10  23
BRANCH  11  25
ATOM     25  O   UNL     1      -0.487  -2.519  21.795  1.00  0.00    -0.508 OA
ATOM     26  H   UNL     1      -0.663  -3.475  22.035  1.00  0.00     0.293 HD
ENDBRANCH  11  25
ENDBRANCH   1   2
BRANCH   1  27
ATOM     27  C   UNL     1       3.106  -2.607  13.680  1.00  0.00     0.339 C 
ATOM     28  C   UNL     1       3.419  -1.900  12.333  1.00  0.00     0.214 C 
ATOM     29  O   UNL     1       2.159  -3.680  13.468  1.00  0.00    -0.332 OA
ATOM     30  C   UNL     1       2.128  -1.285  11.787  1.00  0.00     0.180 C 
ATOM     31  C   UNL     1       0.935  -3.247  12.889  1.00  0.00     0.179 C 
ATOM     32  C   UNL     1       1.133  -2.409  11.579  1.00  0.00     0.177 C 
BRANCH  28  33
ATOM     33  O   UNL     1       3.976  -2.815  11.455  1.00  0.00    -0.384 OA
ATOM     34  H   UNL     1       4.536  -2.239  10.882  1.00  0.00     0.211 HD
ENDBRANCH  28  33
BRANCH  30  35
ATOM     35  O   UNL     1       1.564  -0.342  12.713  1.00  0.00    -0.387 OA
ATOM     36  H   UNL     1       2.228   0.396  12.791  1.00  0.00     0.211 HD
ENDBRANCH  30  35
BRANCH  31  37
ATOM     37  C   UNL     1       0.118  -4.519  12.564  1.00  0.00     0.191 C 
BRANCH  37  38
ATOM     38  O   UNL     1      -0.295  -5.182  13.743  1.00  0.00    -0.394 OA
ATOM     39  H   UNL     1      -1.215  -4.930  13.954  1.00  0.00     0.210 HD
ENDBRANCH  37  38
ENDBRANCH  31  37
BRANCH  32  40
ATOM     40  O   UNL     1      -0.042  -1.781  11.134  1.00  0.00    -0.387 OA
ATOM     41  H   UNL     1       0.137  -1.358  10.277  1.00  0.00     0.211 HD
ENDBRANCH  32  40
ENDBRANCH   1  27
TORSDOF 12
ENDMDL
MODEL 6
REMARK VINA RESULT:    -7.419      2.146      3.477
REMARK INTER + INTRA:         -12.266
REMARK INTER:                 -12.064
REMARK INTRA:                  -0.202
REMARK UNBOUND:                -1.377
REMARK SMILES O=c1c(O[C@H]2O[C@H](CO)[C@@H](O)[C@@H](O)[C@@H]2O)c(-c2ccc(O)c(O)c2)oc2cc(O)cc(O)c12
REMARK SMILES IDX 4 1 3 2 16 3 25 4 2 5 26 6 1 7 33 8 27 9 31 10 28 11 30 12
REMARK SMILES IDX 17 13 18 14 19 15 20 16 24 17 22 18 21 19 23 21 32 23 29 25
REMARK SMILES IDX 5 27 14 28 6 29 12 30 7 31 10 32 15 33 13 35 8 37 9 38 11 40
REMARK H PARENT 21 20 23 22 32 24 29 26 15 34 13 36 9 39 11 41
REMARK Flexibility Score: inf
ROOT
ATOM      1  O   UNL     1       1.983  -1.186  15.244  1.00  0.00    -0.454 OA
ENDROOT
BRANCH   1   2
ATOM      2  C   UNL     1       1.620  -1.807  16.461  1.00  0.00     0.214 A 
ATOM      3  C   UNL     1       2.630  -2.543  17.151  1.00  0.00     0.180 A 
ATOM      4  O   UNL     1       2.313  -3.249  18.254  1.00  0.00    -0.452 OA
ATOM      5  C   UNL     1       0.383  -1.682  17.130  1.00  0.00     0.239 A 
ATOM      6  C   UNL     1       1.284  -2.870  19.005  1.00  0.00     0.146 A 
ATOM      7  O   UNL     1      -0.696  -1.596  16.512  1.00  0.00    -0.285 OA
ATOM      8  C   UNL     1       0.352  -1.913  18.514  1.00  0.00     0.111 A 
ATOM      9  C   UNL     1       1.127  -3.400  20.294  1.00  0.00     0.094 A 
ATOM     10  C   UNL     1      -0.587  -1.346  19.398  1.00  0.00     0.134 A 
ATOM     11  C   UNL     1       0.197  -2.847  21.185  1.00  0.00     0.123 A 
ATOM     12  C   UNL     1      -0.641  -1.798  20.750  1.00  0.00     0.093 A 
BRANCH   3  13
ATOM     13  C   UNL     1       4.029  -2.199  16.970  1.00  0.00     0.025 A 
ATOM     14  C   UNL     1       4.656  -2.194  15.677  1.00  0.00     0.016 A 
ATOM     15  C   UNL     1       6.058  -2.282  15.616  1.00  0.00     0.051 A 
ATOM     16  C   UNL     1       6.822  -2.444  16.769  1.00  0.00     0.157 A 
ATOM     17  C   UNL     1       4.790  -2.334  18.134  1.00  0.00     0.062 A 
ATOM     18  C   UNL     1       6.181  -2.410  18.056  1.00  0.00     0.158 A 
BRANCH  16  19
ATOM     19  O   UNL     1       8.188  -2.718  16.686  1.00  0.00    -0.504 OA
ATOM     20  H   UNL     1       8.534  -3.637  16.385  1.00  0.00     0.293 HD
ENDBRANCH  16  19
BRANCH  18  21
ATOM     21  O   UNL     1       6.892  -2.656  19.214  1.00  0.00    -0.504 OA
ATOM     22  H   UNL     1       6.978  -1.931  19.896  1.00  0.00     0.293 HD
ENDBRANCH  18  21
ENDBRANCH   3  13
BRANCH  10  23
ATOM     23  O   UNL     1      -1.362  -0.241  19.000  1.00  0.00    -0.507 OA
ATOM     24  H   UNL     1      -2.350  -0.360  18.852  1.00  0.00     0.293 HD
ENDBRANCH  10  23
BRANCH  11  25
ATOM     25  O   UNL     1       0.143  -3.354  22.491  1.00  0.00    -0.508 OA
ATOM     26  H   UNL     1      -0.248  -4.272  22.587  1.00  0.00     0.293 HD
ENDBRANCH  11  25
ENDBRANCH   1   2
BRANCH   1  27
ATOM     27  C   UNL     1       1.081  -0.936  14.132  1.00  0.00     0.339 C 
ATOM     28  C   UNL     1       0.391  -2.218  13.592  1.00  0.00     0.214 C 
ATOM     29  O   UNL     1       1.742  -0.237  13.052  1.00  0.00    -0.332 OA
ATOM     30  C   UNL     1       1.462  -3.149  13.015  1.00  0.00     0.180 C 
ATOM     31  C   UNL     1       2.715  -1.025  12.379  1.00  0.00     0.179 C 
ATOM     32  C   UNL     1       2.162  -2.409  11.893  1.00  0.00     0.177 C 
BRANCH  28  33
ATOM     33  O   UNL     1      -0.558  -1.863  12.648  1.00  0.00    -0.384 OA
ATOM     34  H   UNL     1      -0.096  -1.148  12.148  1.00  0.00     0.211 HD
ENDBRANCH  28  33
BRANCH  30  35
ATOM     35  O   UNL     1       2.439  -3.503  14.007  1.00  0.00    -0.387 OA
ATOM     36  H   UNL     1       2.015  -4.208  14.569  1.00  0.00     0.211 HD
ENDBRANCH  30  35
BRANCH  31  37
ATOM     37  C   UNL     1       3.190  -0.206  11.156  1.00  0.00     0.191 C 
BRANCH  37  38
ATOM     38  O   UNL     1       4.476  -0.612  10.731  1.00  0.00    -0.394 OA
ATOM     39  H   UNL     1       4.745  -0.085   9.954  1.00  0.00     0.210 HD
ENDBRANCH  37  38
ENDBRANCH  31  37
BRANCH  32  40
ATOM     40  O   UNL     1       3.163  -3.285  11.444  1.00  0.00    -0.387 OA
ATOM     41  H   UNL     1       3.479  -3.810  12.199  1.00  0.00     0.211 HD
ENDBRANCH  32  40
ENDBRANCH   1  27
TORSDOF 12
ENDMDL
MODEL 7
REMARK VINA RESULT:    -7.340      1.732      6.929
REMARK INTER + INTRA:         -12.150
REMARK INTER:                 -10.846
REMARK INTRA:                  -1.304
REMARK UNBOUND:                -1.377
REMARK SMILES O=c1c(O[C@H]2O[C@H](CO)[C@@H](O)[C@@H](O)[C@@H]2O)c(-c2ccc(O)c(O)c2)oc2cc(O)cc(O)c12
REMARK SMILES IDX 4 1 3 2 16 3 25 4 2 5 26 6 1 7 33 8 27 9 31 10 28 11 30 12
REMARK SMILES IDX 17 13 18 14 19 15 20 16 24 17 22 18 21 19 23 21 32 23 29 25
REMARK SMILES IDX 5 27 14 28 6 29 12 30 7 31 10 32 15 33 13 35 8 37 9 38 11 40
REMARK H PARENT 21 20 23 22 32 24 29 26 15 34 13 36 9 39 11 41
REMARK Flexibility Score: inf
ROOT
ATOM      1  O   UNL     1       2.732  -2.984  18.274  1.00  0.00    -0.454 OA
ENDROOT
BRANCH   1   2
ATOM      2  C   UNL     1       4.032  -2.854  17.735  1.00  0.00     0.214 A 
ATOM      3  C   UNL     1       4.142  -2.641  16.327  1.00  0.00     0.180 A 
ATOM      4  O   UNL     1       5.356  -2.625  15.743  1.00  0.00    -0.452 OA
ATOM      5  C   UNL     1       5.240  -2.799  18.463  1.00  0.00     0.239 A 
ATOM      6  C   UNL     1       6.423  -2.264  16.449  1.00  0.00     0.146 A 
ATOM      7  O   UNL     1       5.418  -3.472  19.497  1.00  0.00    -0.285 OA
ATOM      8  C   UNL     1       6.345  -2.172  17.867  1.00  0.00     0.111 A 
ATOM      9  C   UNL     1       7.623  -1.954  15.793  1.00  0.00     0.094 A 
ATOM     10  C   UNL     1       7.399  -1.564  18.579  1.00  0.00     0.134 A 
ATOM     11  C   UNL     1       8.680  -1.350  16.487  1.00  0.00     0.123 A 
ATOM     12  C   UNL     1       8.560  -1.125  17.875  1.00  0.00     0.093 A 
BRANCH   3  13
ATOM     13  C   UNL     1       3.054  -2.010  15.602  1.00  0.00     0.025 A 
ATOM     14  C   UNL     1       2.498  -0.747  16.000  1.00  0.00     0.016 A 
ATOM     15  C   UNL     1       1.210  -0.413  15.544  1.00  0.00     0.051 A 
ATOM     16  C   UNL     1       0.457  -1.307  14.787  1.00  0.00     0.157 A 
ATOM     17  C   UNL     1       2.317  -2.903  14.819  1.00  0.00     0.062 A 
ATOM     18  C   UNL     1       1.045  -2.551  14.368  1.00  0.00     0.158 A 
BRANCH  16  19
ATOM     19  O   UNL     1      -0.883  -1.045  14.500  1.00  0.00    -0.504 OA
ATOM     20  H   UNL     1      -1.615  -1.746  14.669  1.00  0.00     0.293 HD
ENDBRANCH  16  19
BRANCH  18  21
ATOM     21  O   UNL     1       0.301  -3.500  13.693  1.00  0.00    -0.504 OA
ATOM     22  H   UNL     1       0.063  -3.342  12.736  1.00  0.00     0.293 HD
ENDBRANCH  18  21
ENDBRANCH   3  13
BRANCH  10  23
ATOM     23  O   UNL     1       7.250  -1.254  19.943  1.00  0.00    -0.507 OA
ATOM     24  H   UNL     1       6.400  -1.508  20.416  1.00  0.00     0.293 HD
ENDBRANCH  10  23
BRANCH  11  25
ATOM     25  O   UNL     1       9.824  -0.979  15.767  1.00  0.00    -0.508 OA
ATOM     26  H   UNL     1       9.666  -0.661  14.830  1.00  0.00     0.293 HD
ENDBRANCH  11  25
ENDBRANCH   1   2
BRANCH   1  27
ATOM     27  C   UNL     1       2.193  -4.192  18.877  1.00  0.00     0.339 C 
ATOM     28  C   UNL     1       0.647  -4.299  18.776  1.00  0.00     0.214 C 
ATOM     29  O   UNL     1       2.612  -4.338  20.253  1.00  0.00    -0.332 OA
ATOM     30  C   UNL     1       0.021  -3.157  19.581  1.00  0.00     0.180 C 
ATOM     31  C   UNL     1       2.035  -3.375  21.125  1.00  0.00     0.179 C 
ATOM     32  C   UNL     1       0.472  -3.304  21.021  1.00  0.00     0.177 C 
BRANCH  28  33
ATOM     33  O   UNL     1       0.245  -5.543  19.232  1.00  0.00    -0.384 OA
ATOM     34  H   UNL     1      -0.088  -5.335  20.138  1.00  0.00     0.211 HD
ENDBRANCH  28  33
BRANCH  30  35
ATOM     35  O   UNL     1       0.452  -1.875  19.097  1.00  0.00    -0.387 OA
ATOM     36  H   UNL     1       0.621  -1.994  18.123  1.00  0.00     0.211 HD
ENDBRANCH  30  35
BRANCH  31  37
ATOM     37  C   UNL     1       2.434  -3.776  22.565  1.00  0.00     0.191 C 
BRANCH  37  38
ATOM     38  O   UNL     1       2.393  -2.666  23.440  1.00  0.00    -0.394 OA
ATOM     39  H   UNL     1       2.598  -1.850  22.942  1.00  0.00     0.210 HD
ENDBRANCH  37  38
ENDBRANCH  31  37
BRANCH  32  40
ATOM     40  O   UNL     1      -0.084  -2.205  21.694  1.00  0.00    -0.387 OA
ATOM     41  H   UNL     1      -0.762  -2.528  22.312  1.00  0.00     0.211 HD
ENDBRANCH  32  40
ENDBRANCH   1  27
TORSDOF 12
ENDMDL
MODEL 8
REMARK VINA RESULT:    -7.247      1.996      7.505
REMARK INTER + INTRA:         -12.013
REMARK INTER:                 -10.579
REMARK INTRA:                  -1.434
REMARK UNBOUND:                -1.377
REMARK SMILES O=c1c(O[C@H]2O[C@H](CO)[C@@H](O)[C@@H](O)[C@@H]2O)c(-c2ccc(O)c(O)c2)oc2cc(O)cc(O)c12
REMARK SMILES IDX 4 1 3 2 16 3 25 4 2 5 26 6 1 7 33 8 27 9 31 10 28 11 30 12
REMARK SMILES IDX 17 13 18 14 19 15 20 16 24 17 22 18 21 19 23 21 32 23 29 25
REMARK SMILES IDX 5 27 14 28 6 29 12 30 7 31 10 32 15 33 13 35 8 37 9 38 11 40
REMARK H PARENT 21 20 23 22 32 24 29 26 15 34 13 36 9 39 11 41
REMARK Flexibility Score: inf
ROOT
ATOM      1  O   UNL     1       4.092  -2.171  18.112  1.00  0.00    -0.454 OA
ENDROOT
BRANCH   1   2
ATOM      2  C   UNL     1       3.252  -2.442  17.009  1.00  0.00     0.214 A 
ATOM      3  C   UNL     1       1.897  -2.799  17.284  1.00  0.00     0.180 A 
ATOM      4  O   UNL     1       1.084  -3.179  16.280  1.00  0.00    -0.452 OA
ATOM      5  C   UNL     1       3.582  -2.287  15.645  1.00  0.00     0.239 A 
ATOM      6  C   UNL     1       1.305  -2.732  15.048  1.00  0.00     0.146 A 
ATOM      7  O   UNL     1       4.724  -2.533  15.211  1.00  0.00    -0.285 OA
ATOM      8  C   UNL     1       2.538  -2.097  14.727  1.00  0.00     0.111 A 
ATOM      9  C   UNL     1       0.313  -2.869  14.066  1.00  0.00     0.094 A 
ATOM     10  C   UNL     1       2.667  -1.420  13.498  1.00  0.00     0.134 A 
ATOM     11  C   UNL     1       0.427  -2.203  12.838  1.00  0.00     0.123 A 
ATOM     12  C   UNL     1       1.590  -1.451  12.562  1.00  0.00     0.093 A 
BRANCH   3  13
ATOM     13  C   UNL     1       1.262  -2.344  18.509  1.00  0.00     0.025 A 
ATOM     14  C   UNL     1       1.429  -3.031  19.759  1.00  0.00     0.016 A 
ATOM     15  C   UNL     1       0.479  -2.812  20.772  1.00  0.00     0.051 A 
ATOM     16  C   UNL     1      -0.638  -2.010  20.553  1.00  0.00     0.157 A 
ATOM     17  C   UNL     1       0.159  -1.516  18.288  1.00  0.00     0.062 A 
ATOM     18  C   UNL     1      -0.770  -1.303  19.307  1.00  0.00     0.158 A 
BRANCH  16  19
ATOM     19  O   UNL     1      -1.668  -1.949  21.492  1.00  0.00    -0.504 OA
ATOM     20  H   UNL     1      -2.654  -2.011  21.213  1.00  0.00     0.293 HD
ENDBRANCH  16  19
BRANCH  18  21
ATOM     21  O   UNL     1      -1.905  -0.570  19.019  1.00  0.00    -0.504 OA
ATOM     22  H   UNL     1      -2.744  -1.050  18.767  1.00  0.00     0.293 HD
ENDBRANCH  18  21
ENDBRANCH   3  13
BRANCH  10  23
ATOM     23  O   UNL     1       3.781  -0.596  13.253  1.00  0.00    -0.507 OA
ATOM     24  H   UNL     1       3.755   0.052  12.484  1.00  0.00     0.293 HD
ENDBRANCH  10  23
BRANCH  11  25
ATOM     25  O   UNL     1      -0.633  -2.299  11.926  1.00  0.00    -0.508 OA
ATOM     26  H   UNL     1      -1.236  -1.501  11.870  1.00  0.00     0.293 HD
ENDBRANCH  11  25
ENDBRANCH   1   2
BRANCH   1  27
ATOM     27  C   UNL     1       4.997  -3.127  18.729  1.00  0.00     0.339 C 
ATOM     28  C   UNL     1       5.405  -2.749  20.179  1.00  0.00     0.214 C 
ATOM     29  O   UNL     1       6.177  -3.345  17.922  1.00  0.00    -0.332 OA
ATOM     30  C   UNL     1       6.197  -1.439  20.142  1.00  0.00     0.180 C 
ATOM     31  C   UNL     1       7.043  -2.218  17.870  1.00  0.00     0.179 C 
ATOM     32  C   UNL     1       7.426  -1.666  19.286  1.00  0.00     0.177 C 
BRANCH  28  33
ATOM     33  O   UNL     1       6.134  -3.787  20.733  1.00  0.00    -0.384 OA
ATOM     34  H   UNL     1       6.484  -3.377  21.560  1.00  0.00     0.211 HD
ENDBRANCH  28  33
BRANCH  30  35
ATOM     35  O   UNL     1       5.426  -0.375  19.561  1.00  0.00    -0.387 OA
ATOM     36  H   UNL     1       5.605  -0.412  18.582  1.00  0.00     0.211 HD
ENDBRANCH  30  35
BRANCH  31  37
ATOM     37  C   UNL     1       8.324  -2.669  17.131  1.00  0.00     0.191 C 
BRANCH  37  38
ATOM     38  O   UNL     1       9.340  -1.688  17.215  1.00  0.00    -0.394 OA
ATOM     39  H   UNL     1      10.122  -2.065  17.665  1.00  0.00     0.210 HD
ENDBRANCH  37  38
ENDBRANCH  31  37
BRANCH  32  40
ATOM     40  O   UNL     1       8.079  -0.423  19.244  1.00  0.00    -0.387 OA
ATOM     41  H   UNL     1       7.786   0.108  20.004  1.00  0.00     0.211 HD
ENDBRANCH  32  40
ENDBRANCH   1  27
TORSDOF 12
ENDMDL
MODEL 9
REMARK VINA RESULT:    -7.096      3.055      5.039
REMARK INTER + INTRA:         -11.791
REMARK INTER:                 -10.724
REMARK INTRA:                  -1.067
REMARK UNBOUND:                -1.377
REMARK SMILES O=c1c(O[C@H]2O[C@H](CO)[C@@H](O)[C@@H](O)[C@@H]2O)c(-c2ccc(O)c(O)c2)oc2cc(O)cc(O)c12
REMARK SMILES IDX 4 1 3 2 16 3 25 4 2 5 26 6 1 7 33 8 27 9 31 10 28 11 30 12
REMARK SMILES IDX 17 13 18 14 19 15 20 16 24 17 22 18 21 19 23 21 32 23 29 25
REMARK SMILES IDX 5 27 14 28 6 29 12 30 7 31 10 32 15 33 13 35 8 37 9 38 11 40
REMARK H PARENT 21 20 23 22 32 24 29 26 15 34 13 36 9 39 11 41
REMARK Flexibility Score: inf
ROOT
ATOM      1  O   UNL     1       0.509  -2.189  17.137  1.00  0.00    -0.454 OA
ENDROOT
BRANCH   1   2
ATOM      2  C   UNL     1      -0.114  -1.995  18.390  1.00  0.00     0.214 A 
ATOM      3  C   UNL     1       0.366  -2.767  19.491  1.00  0.00     0.180 A 
ATOM      4  O   UNL     1      -0.264  -2.708  20.680  1.00  0.00    -0.452 OA
ATOM      5  C   UNL     1      -1.094  -1.026  18.699  1.00  0.00     0.239 A 
ATOM      6  C   UNL     1      -0.934  -1.609  21.017  1.00  0.00     0.146 A 
ATOM      7  O   UNL     1      -1.973  -0.694  17.880  1.00  0.00    -0.285 OA
ATOM      8  C   UNL     1      -1.229  -0.622  20.035  1.00  0.00     0.111 A 
ATOM      9  C   UNL     1      -1.333  -1.414  22.347  1.00  0.00     0.094 A 
ATOM     10  C   UNL     1      -1.722   0.633  20.445  1.00  0.00     0.134 A 
ATOM     11  C   UNL     1      -1.825  -0.172  22.770  1.00  0.00     0.123 A 
ATOM     12  C   UNL     1      -1.992   0.865  21.827  1.00  0.00     0.093 A 
BRANCH   3  13
ATOM     13  C   UNL     1       1.735  -3.251  19.495  1.00  0.00     0.025 A 
ATOM     14  C   UNL     1       2.279  -4.022  18.413  1.00  0.00     0.016 A 
ATOM     15  C   UNL     1       3.421  -4.805  18.660  1.00  0.00     0.051 A 
ATOM     16  C   UNL     1       3.973  -4.894  19.935  1.00  0.00     0.157 A 
ATOM     17  C   UNL     1       2.299  -3.312  20.773  1.00  0.00     0.062 A 
ATOM     18  C   UNL     1       3.437  -4.087  20.998  1.00  0.00     0.158 A 
BRANCH  16  19
ATOM     19  O   UNL     1       4.985  -5.814  20.211  1.00  0.00    -0.504 OA
ATOM     20  H   UNL     1       5.202  -6.102  21.173  1.00  0.00     0.293 HD
ENDBRANCH  16  19
BRANCH  18  21
ATOM     21  O   UNL     1       3.900  -4.214  22.293  1.00  0.00    -0.504 OA
ATOM     22  H   UNL     1       3.348  -3.859  23.046  1.00  0.00     0.293 HD
ENDBRANCH  18  21
ENDBRANCH   3  13
BRANCH  10  23
ATOM     23  O   UNL     1      -1.805   1.699  19.529  1.00  0.00    -0.507 OA
ATOM     24  H   UNL     1      -1.248   1.673  18.692  1.00  0.00     0.293 HD
ENDBRANCH  10  23
BRANCH  11  25
ATOM     25  O   UNL     1      -2.125  -0.002  24.128  1.00  0.00    -0.508 OA
ATOM     26  H   UNL     1      -1.637   0.739  24.594  1.00  0.00     0.293 HD
ENDBRANCH  11  25
ENDBRANCH   1   2
BRANCH   1  27
ATOM     27  C   UNL     1       0.888  -1.129  16.218  1.00  0.00     0.339 C 
ATOM     28  C   UNL     1       0.167  -1.211  14.845  1.00  0.00     0.214 C 
ATOM     29  O   UNL     1       2.320  -1.074  16.024  1.00  0.00    -0.332 OA
ATOM     30  C   UNL     1       0.595  -2.500  14.139  1.00  0.00     0.180 C 
ATOM     31  C   UNL     1       2.837  -2.188  15.307  1.00  0.00     0.179 C 
ATOM     32  C   UNL     1       2.098  -2.446  13.949  1.00  0.00     0.177 C 
BRANCH  28  33
ATOM     33  O   UNL     1       0.471  -0.082  14.102  1.00  0.00    -0.384 OA
ATOM     34  H   UNL     1       1.457  -0.115  14.066  1.00  0.00     0.211 HD
ENDBRANCH  28  33
BRANCH  30  35
ATOM     35  O   UNL     1       0.277  -3.660  14.926  1.00  0.00    -0.387 OA
ATOM     36  H   UNL     1      -0.634  -3.497  15.295  1.00  0.00     0.211 HD
ENDBRANCH  30  35
BRANCH  31  37
ATOM     37  C   UNL     1       4.329  -1.890  15.029  1.00  0.00     0.191 C 
BRANCH  37  38
ATOM     38  O   UNL     1       4.605  -1.888  13.641  1.00  0.00    -0.394 OA
ATOM     39  H   UNL     1       3.794  -2.119  13.147  1.00  0.00     0.210 HD
ENDBRANCH  37  38
ENDBRANCH  31  37
BRANCH  32  40
ATOM     40  O   UNL     1       2.436  -3.672  13.352  1.00  0.00    -0.387 OA
ATOM     41  H   UNL     1       3.052  -4.144  13.938  1.00  0.00     0.211 HD
ENDBRANCH  32  40
ENDBRANCH   1  27
TORSDOF 12
ENDMDL
