MODEL 1
REMARK VINA RESULT:    -6.001      0.000      0.000
REMARK INTER + INTRA:          -7.079
REMARK INTER:                  -7.054
REMARK INTRA:                  -0.026
REMARK UNBOUND:                -0.026
REMARK SMILES O=c1c(O)c(-c2ccc(O)cc2)oc2cc(O)cc(O)c12
REMARK SMILES IDX 5 1 3 2 2 3 1 4 21 5 19 6 18 7 16 8 15 9 14 10 13 11 6 12
REMARK SMILES IDX 7 13 8 14 9 15 12 16 11 17 10 18 4 20 20 22 17 24
REMARK H PARENT 10 19 4 21 20 23 17 25
REMARK Flexibility Score: inf
ROOT
ATOM      1  C   UNL     1       5.905 -17.104  14.256  1.00  0.00     0.180 A 
ATOM      2  C   UNL     1       6.759 -15.990  14.343  1.00  0.00     0.208 A 
ATOM      3  C   UNL     1       6.212 -14.735  14.652  1.00  0.00     0.238 A 
ATOM      4  O   UNL     1       6.974 -13.734  14.674  1.00  0.00    -0.285 OA
ATOM      5  C   UNL     1       4.821 -14.611  14.887  1.00  0.00     0.111 A 
ATOM      6  C   UNL     1       4.166 -13.394  15.248  1.00  0.00     0.134 A 
ATOM      7  C   UNL     1       2.768 -13.361  15.328  1.00  0.00     0.093 A 
ATOM      8  C   UNL     1       2.008 -14.515  15.125  1.00  0.00     0.123 A 
ATOM      9  C   UNL     1       2.642 -15.719  14.831  1.00  0.00     0.094 A 
ATOM     10  C   UNL     1       4.032 -15.776  14.708  1.00  0.00     0.146 A 
ATOM     11  O   UNL     1       4.596 -16.943  14.417  1.00  0.00    -0.452 OA
ENDROOT
BRANCH   1  12
ATOM     12  C   UNL     1       6.409 -18.464  13.959  1.00  0.00     0.021 A 
ATOM     13  C   UNL     1       6.147 -19.547  14.818  1.00  0.00     0.016 A 
ATOM     14  C   UNL     1       6.612 -20.827  14.505  1.00  0.00     0.047 A 
ATOM     15  C   UNL     1       7.334 -21.044  13.324  1.00  0.00     0.115 A 
ATOM     16  C   UNL     1       7.116 -18.695  12.767  1.00  0.00     0.016 A 
ATOM     17  C   UNL     1       7.581 -19.976  12.457  1.00  0.00     0.047 A 
BRANCH  15  18
ATOM     18  O   UNL     1       7.805 -22.315  13.002  1.00  0.00    -0.508 OA
ATOM     19  H   UNL     1       8.589 -22.445  12.373  1.00  0.00     0.293 HD
ENDBRANCH  15  18
ENDBRANCH   1  12
BRANCH   2  20
ATOM     20  O   UNL     1       8.125 -16.132  14.085  1.00  0.00    -0.502 OA
ATOM     21  H   UNL     1       8.527 -15.959  13.172  1.00  0.00     0.293 HD
ENDBRANCH   2  20
BRANCH   6  22
ATOM     22  O   UNL     1       4.838 -12.210  15.561  1.00  0.00    -0.507 OA
ATOM     23  H   UNL     1       5.238 -11.997  16.462  1.00  0.00     0.293 HD
ENDBRANCH   6  22
BRANCH   8  24
ATOM     24  O   UNL     1       0.618 -14.476  15.221  1.00  0.00    -0.508 OA
ATOM     25  H   UNL     1       0.091 -13.653  14.955  1.00  0.00     0.293 HD
ENDBRANCH   8  24
TORSDOF 5
ENDMDL
MODEL 2
REMARK VINA RESULT:    -5.471      3.641      6.013
REMARK INTER + INTRA:          -6.457
REMARK INTER:                  -6.215
REMARK INTRA:                  -0.242
REMARK UNBOUND:                -0.026
REMARK SMILES O=c1c(O)c(-c2ccc(O)cc2)oc2cc(O)cc(O)c12
REMARK SMILES IDX 5 1 3 2 2 3 1 4 21 5 19 6 18 7 16 8 15 9 14 10 13 11 6 12
REMARK SMILES IDX 7 13 8 14 9 15 12 16 11 17 10 18 4 20 20 22 17 24
REMARK H PARENT 10 19 4 21 20 23 17 25
REMARK Flexibility Score: inf
ROOT
ATOM      1  C   UNL     1       5.303 -12.461  14.565  1.00  0.00     0.180 A 
ATOM      2  C   UNL     1       5.002 -11.562  15.603  1.00  0.00     0.208 A 
ATOM      3  C   UNL     1       5.342 -10.209  15.452  1.00  0.00     0.238 A 
ATOM      4  O   UNL     1       5.119  -9.420  16.407  1.00  0.00    -0.285 OA
ATOM      5  C   UNL     1       5.965  -9.768  14.259  1.00  0.00     0.111 A 
ATOM      6  C   UNL     1       6.316  -8.412  13.983  1.00  0.00     0.134 A 
ATOM      7  C   UNL     1       7.046  -8.110  12.826  1.00  0.00     0.093 A 
ATOM      8  C   UNL     1       7.379  -9.106  11.905  1.00  0.00     0.123 A 
ATOM      9  C   UNL     1       6.988 -10.422  12.137  1.00  0.00     0.094 A 
ATOM     10  C   UNL     1       6.291 -10.760  13.299  1.00  0.00     0.146 A 
ATOM     11  O   UNL     1       5.946 -12.029  13.487  1.00  0.00    -0.452 OA
ENDROOT
BRANCH   1  12
ATOM     12  C   UNL     1       4.954 -13.898  14.640  1.00  0.00     0.021 A 
ATOM     13  C   UNL     1       3.627 -14.339  14.479  1.00  0.00     0.016 A 
ATOM     14  C   UNL     1       3.324 -15.703  14.528  1.00  0.00     0.047 A 
ATOM     15  C   UNL     1       4.343 -16.644  14.728  1.00  0.00     0.115 A 
ATOM     16  C   UNL     1       5.972 -14.850  14.819  1.00  0.00     0.016 A 
ATOM     17  C   UNL     1       5.666 -16.213  14.870  1.00  0.00     0.047 A 
BRANCH  15  18
ATOM     18  O   UNL     1       4.054 -18.005  14.782  1.00  0.00    -0.508 OA
ATOM     19  H   UNL     1       4.000 -18.500  15.664  1.00  0.00     0.293 HD
ENDBRANCH  15  18
ENDBRANCH   1  12
BRANCH   2  20
ATOM     20  O   UNL     1       4.407 -12.023  16.781  1.00  0.00    -0.502 OA
ATOM     21  H   UNL     1       3.772 -12.812  16.796  1.00  0.00     0.293 HD
ENDBRANCH   2  20
BRANCH   6  22
ATOM     22  O   UNL     1       5.953  -7.331  14.790  1.00  0.00    -0.507 OA
ATOM     23  H   UNL     1       5.925  -7.351  15.799  1.00  0.00     0.293 HD
ENDBRANCH   6  22
BRANCH   8  24
ATOM     24  O   UNL     1       8.092  -8.795  10.748  1.00  0.00    -0.508 OA
ATOM     25  H   UNL     1       9.010  -8.371  10.790  1.00  0.00     0.293 HD
ENDBRANCH   8  24
TORSDOF 5
ENDMDL
MODEL 3
REMARK VINA RESULT:    -5.331      3.329      7.072
REMARK INTER + INTRA:          -6.292
REMARK INTER:                  -5.994
REMARK INTRA:                  -0.298
REMARK UNBOUND:                -0.026
REMARK SMILES O=c1c(O)c(-c2ccc(O)cc2)oc2cc(O)cc(O)c12
REMARK SMILES IDX 5 1 3 2 2 3 1 4 21 5 19 6 18 7 16 8 15 9 14 10 13 11 6 12
REMARK SMILES IDX 7 13 8 14 9 15 12 16 11 17 10 18 4 20 20 22 17 24
REMARK H PARENT 10 19 4 21 20 23 17 25
REMARK Flexibility Score: inf
ROOT
ATOM      1  C   UNL     1       5.800 -12.019  14.457  1.00  0.00     0.180 A 
ATOM      2  C   UNL     1       6.727 -12.973  14.914  1.00  0.00     0.208 A 
ATOM      3  C   UNL     1       6.266 -14.244  15.290  1.00  0.00     0.238 A 
ATOM      4  O   UNL     1       7.093 -15.075  15.749  1.00  0.00    -0.285 OA
ATOM      5  C   UNL     1       4.889 -14.553  15.189  1.00  0.00     0.111 A 
ATOM      6  C   UNL     1       4.318 -15.823  15.503  1.00  0.00     0.134 A 
ATOM      7  C   UNL     1       2.926 -15.977  15.491  1.00  0.00     0.093 A 
ATOM      8  C   UNL     1       2.089 -14.924  15.112  1.00  0.00     0.123 A 
ATOM      9  C   UNL     1       2.640 -13.699  14.746  1.00  0.00     0.094 A 
ATOM     10  C   UNL     1       4.023 -13.505  14.783  1.00  0.00     0.146 A 
ATOM     11  O   UNL     1       4.506 -12.318  14.436  1.00  0.00    -0.452 OA
ENDROOT
BRANCH   1  12
ATOM     12  C   UNL     1       6.212 -10.666  14.020  1.00  0.00     0.021 A 
ATOM     13  C   UNL     1       6.615 -10.414  12.696  1.00  0.00     0.016 A 
ATOM     14  C   UNL     1       6.975  -9.123  12.299  1.00  0.00     0.047 A 
ATOM     15  C   UNL     1       6.926  -8.065  13.217  1.00  0.00     0.115 A 
ATOM     16  C   UNL     1       6.145  -9.595  14.928  1.00  0.00     0.016 A 
ATOM     17  C   UNL     1       6.507  -8.306  14.529  1.00  0.00     0.047 A 
BRANCH  15  18
ATOM     18  O   UNL     1       7.285  -6.775  12.834  1.00  0.00    -0.508 OA
ATOM     19  H   UNL     1       7.643  -6.105  13.505  1.00  0.00     0.293 HD
ENDBRANCH  15  18
ENDBRANCH   1  12
BRANCH   2  20
ATOM     20  O   UNL     1       8.080 -12.639  15.027  1.00  0.00    -0.502 OA
ATOM     21  H   UNL     1       8.486 -11.848  14.542  1.00  0.00     0.293 HD
ENDBRANCH   2  20
BRANCH   6  22
ATOM     22  O   UNL     1       5.068 -16.963  15.805  1.00  0.00    -0.507 OA
ATOM     23  H   UNL     1       6.006 -16.952  16.177  1.00  0.00     0.293 HD
ENDBRANCH   6  22
BRANCH   8  24
ATOM     24  O   UNL     1       0.705 -15.090  15.088  1.00  0.00    -0.508 OA
ATOM     25  H   UNL     1       0.080 -14.305  14.951  1.00  0.00     0.293 HD
ENDBRANCH   8  24
TORSDOF 5
ENDMDL
MODEL 4
REMARK VINA RESULT:    -5.226      1.866      6.969
REMARK INTER + INTRA:          -6.168
REMARK INTER:                  -5.879
REMARK INTRA:                  -0.289
REMARK UNBOUND:                -0.026
REMARK SMILES O=c1c(O)c(-c2ccc(O)cc2)oc2cc(O)cc(O)c12
REMARK SMILES IDX 5 1 3 2 2 3 1 4 21 5 19 6 18 7 16 8 15 9 14 10 13 11 6 12
REMARK SMILES IDX 7 13 8 14 9 15 12 16 11 17 10 18 4 20 20 22 17 24
REMARK H PARENT 10 19 4 21 20 23 17 25
REMARK Flexibility Score: inf
ROOT
ATOM      1  C   UNL     1       4.788 -17.061  15.413  1.00  0.00     0.180 A 
ATOM      2  C   UNL     1       4.819 -17.877  16.558  1.00  0.00     0.208 A 
ATOM      3  C   UNL     1       5.553 -19.072  16.522  1.00  0.00     0.238 A 
ATOM      4  O   UNL     1       5.532 -19.824  17.532  1.00  0.00    -0.285 OA
ATOM      5  C   UNL     1       6.261 -19.430  15.350  1.00  0.00     0.111 A 
ATOM      6  C   UNL     1       7.071 -20.598  15.218  1.00  0.00     0.134 A 
ATOM      7  C   UNL     1       7.620 -20.920  13.970  1.00  0.00     0.093 A 
ATOM      8  C   UNL     1       7.443 -20.080  12.867  1.00  0.00     0.123 A 
ATOM      9  C   UNL     1       6.704 -18.908  13.002  1.00  0.00     0.094 A 
ATOM     10  C   UNL     1       6.114 -18.579  14.224  1.00  0.00     0.146 A 
ATOM     11  O   UNL     1       5.409 -17.456  14.307  1.00  0.00    -0.452 OA
ENDROOT
BRANCH   1  12
ATOM     12  C   UNL     1       4.057 -15.774  15.381  1.00  0.00     0.021 A 
ATOM     13  C   UNL     1       2.709 -15.707  14.981  1.00  0.00     0.016 A 
ATOM     14  C   UNL     1       2.031 -14.485  14.982  1.00  0.00     0.047 A 
ATOM     15  C   UNL     1       2.685 -13.317  15.393  1.00  0.00     0.115 A 
ATOM     16  C   UNL     1       4.699 -14.601  15.812  1.00  0.00     0.016 A 
ATOM     17  C   UNL     1       4.019 -13.380  15.810  1.00  0.00     0.047 A 
BRANCH  15  18
ATOM     18  O   UNL     1       2.021 -12.093  15.397  1.00  0.00    -0.508 OA
ATOM     19  H   UNL     1       2.468 -11.247  15.061  1.00  0.00     0.293 HD
ENDBRANCH  15  18
ENDBRANCH   1  12
BRANCH   2  20
ATOM     20  O   UNL     1       4.094 -17.515  17.697  1.00  0.00    -0.502 OA
ATOM     21  H   UNL     1       3.084 -17.439  17.697  1.00  0.00     0.293 HD
ENDBRANCH   2  20
BRANCH   6  22
ATOM     22  O   UNL     1       7.386 -21.454  16.276  1.00  0.00    -0.507 OA
ATOM     23  H   UNL     1       7.225 -22.450  16.278  1.00  0.00     0.293 HD
ENDBRANCH   6  22
BRANCH   8  24
ATOM     24  O   UNL     1       8.006 -20.399  11.633  1.00  0.00    -0.508 OA
ATOM     25  H   UNL     1       9.000 -20.303  11.463  1.00  0.00     0.293 HD
ENDBRANCH   8  24
TORSDOF 5
ENDMDL
MODEL 5
REMARK VINA RESULT:    -5.154      2.656      7.279
REMARK INTER + INTRA:          -6.084
REMARK INTER:                  -5.853
REMARK INTRA:                  -0.231
REMARK UNBOUND:                -0.026
REMARK SMILES O=c1c(O)c(-c2ccc(O)cc2)oc2cc(O)cc(O)c12
REMARK SMILES IDX 5 1 3 2 2 3 1 4 21 5 19 6 18 7 16 8 15 9 14 10 13 11 6 12
REMARK SMILES IDX 7 13 8 14 9 15 12 16 11 17 10 18 4 20 20 22 17 24
REMARK H PARENT 10 19 4 21 20 23 17 25
REMARK Flexibility Score: inf
ROOT
ATOM      1  C   UNL     1       5.314 -13.095  14.518  1.00  0.00     0.180 A 
ATOM      2  C   UNL     1       4.036 -13.546  14.891  1.00  0.00     0.208 A 
ATOM      3  C   UNL     1       3.813 -14.925  15.028  1.00  0.00     0.238 A 
ATOM      4  O   UNL     1       2.653 -15.325  15.309  1.00  0.00    -0.285 OA
ATOM      5  C   UNL     1       4.875 -15.835  14.807  1.00  0.00     0.111 A 
ATOM      6  C   UNL     1       4.772 -17.251  14.958  1.00  0.00     0.134 A 
ATOM      7  C   UNL     1       5.850 -18.065  14.587  1.00  0.00     0.093 A 
ATOM      8  C   UNL     1       7.049 -17.509  14.132  1.00  0.00     0.123 A 
ATOM      9  C   UNL     1       7.178 -16.126  14.038  1.00  0.00     0.094 A 
ATOM     10  C   UNL     1       6.109 -15.290  14.367  1.00  0.00     0.146 A 
ATOM     11  O   UNL     1       6.271 -13.977  14.254  1.00  0.00    -0.452 OA
ENDROOT
BRANCH   1  12
ATOM     12  C   UNL     1       5.632 -11.656  14.376  1.00  0.00     0.021 A 
ATOM     13  C   UNL     1       5.763 -10.820  15.501  1.00  0.00     0.016 A 
ATOM     14  C   UNL     1       6.089  -9.470  15.345  1.00  0.00     0.047 A 
ATOM     15  C   UNL     1       6.300  -8.940  14.065  1.00  0.00     0.115 A 
ATOM     16  C   UNL     1       5.866 -11.121  13.098  1.00  0.00     0.016 A 
ATOM     17  C   UNL     1       6.190  -9.770  12.945  1.00  0.00     0.047 A 
BRANCH  15  18
ATOM     18  O   UNL     1       6.623  -7.596  13.896  1.00  0.00    -0.508 OA
ATOM     19  H   UNL     1       5.932  -6.919  13.593  1.00  0.00     0.293 HD
ENDBRANCH  15  18
ENDBRANCH   1  12
BRANCH   2  20
ATOM     20  O   UNL     1       2.997 -12.631  15.082  1.00  0.00    -0.502 OA
ATOM     21  H   UNL     1       2.514 -12.187  14.310  1.00  0.00     0.293 HD
ENDBRANCH   2  20
BRANCH   6  22
ATOM     22  O   UNL     1       3.654 -17.901  15.488  1.00  0.00    -0.507 OA
ATOM     23  H   UNL     1       3.516 -18.099  16.468  1.00  0.00     0.293 HD
ENDBRANCH   6  22
BRANCH   8  24
ATOM     24  O   UNL     1       8.122 -18.325  13.779  1.00  0.00    -0.508 OA
ATOM     25  H   UNL     1       7.988 -19.176  13.247  1.00  0.00     0.293 HD
ENDBRANCH   8  24
TORSDOF 5
ENDMDL
MODEL 6
REMARK VINA RESULT:    -5.064      2.144      3.573
REMARK INTER + INTRA:          -5.978
REMARK INTER:                  -5.931
REMARK INTRA:                  -0.047
REMARK UNBOUND:                -0.026
REMARK SMILES O=c1c(O)c(-c2ccc(O)cc2)oc2cc(O)cc(O)c12
REMARK SMILES IDX 5 1 3 2 2 3 1 4 21 5 19 6 18 7 16 8 15 9 14 10 13 11 6 12
REMARK SMILES IDX 7 13 8 14 9 15 12 16 11 17 10 18 4 20 20 22 17 24
REMARK H PARENT 10 19 4 21 20 23 17 25
REMARK Flexibility Score: inf
ROOT
ATOM      1  C   UNL     1       4.930 -15.107  15.136  1.00  0.00     0.180 A 
ATOM      2  C   UNL     1       4.204 -15.186  16.338  1.00  0.00     0.208 A 
ATOM      3  C   UNL     1       3.587 -14.029  16.838  1.00  0.00     0.238 A 
ATOM      4  O   UNL     1       2.984 -14.095  17.941  1.00  0.00    -0.285 OA
ATOM      5  C   UNL     1       3.688 -12.811  16.124  1.00  0.00     0.111 A 
ATOM      6  C   UNL     1       3.068 -11.587  16.517  1.00  0.00     0.134 A 
ATOM      7  C   UNL     1       3.344 -10.413  15.805  1.00  0.00     0.093 A 
ATOM      8  C   UNL     1       4.165 -10.433  14.674  1.00  0.00     0.123 A 
ATOM      9  C   UNL     1       4.726 -11.634  14.248  1.00  0.00     0.094 A 
ATOM     10  C   UNL     1       4.499 -12.814  14.959  1.00  0.00     0.146 A 
ATOM     11  O   UNL     1       5.062 -13.936  14.524  1.00  0.00    -0.452 OA
ENDROOT
BRANCH   1  12
ATOM     12  C   UNL     1       5.588 -16.288  14.533  1.00  0.00     0.021 A 
ATOM     13  C   UNL     1       4.870 -17.466  14.257  1.00  0.00     0.016 A 
ATOM     14  C   UNL     1       5.506 -18.560  13.664  1.00  0.00     0.047 A 
ATOM     15  C   UNL     1       6.864 -18.488  13.329  1.00  0.00     0.115 A 
ATOM     16  C   UNL     1       6.944 -16.217  14.174  1.00  0.00     0.016 A 
ATOM     17  C   UNL     1       7.579 -17.313  13.583  1.00  0.00     0.047 A 
BRANCH  15  18
ATOM     18  O   UNL     1       7.510 -19.572  12.739  1.00  0.00    -0.508 OA
ATOM     19  H   UNL     1       7.033 -20.180  12.084  1.00  0.00     0.293 HD
ENDBRANCH  15  18
ENDBRANCH   1  12
BRANCH   2  20
ATOM     20  O   UNL     1       4.135 -16.394  17.038  1.00  0.00    -0.502 OA
ATOM     21  H   UNL     1       4.962 -16.915  17.306  1.00  0.00     0.293 HD
ENDBRANCH   2  20
BRANCH   6  22
ATOM     22  O   UNL     1       2.161 -11.476  17.574  1.00  0.00    -0.507 OA
ATOM     23  H   UNL     1       1.312 -12.015  17.662  1.00  0.00     0.293 HD
ENDBRANCH   6  22
BRANCH   8  24
ATOM     24  O   UNL     1       4.422  -9.263  13.962  1.00  0.00    -0.508 OA
ATOM     25  H   UNL     1       3.694  -8.789  13.442  1.00  0.00     0.293 HD
ENDBRANCH   8  24
TORSDOF 5
ENDMDL
MODEL 7
REMARK VINA RESULT:    -5.037      3.296      4.657
REMARK INTER + INTRA:          -5.947
REMARK INTER:                  -5.713
REMARK INTRA:                  -0.233
REMARK UNBOUND:                -0.026
REMARK SMILES O=c1c(O)c(-c2ccc(O)cc2)oc2cc(O)cc(O)c12
REMARK SMILES IDX 5 1 3 2 2 3 1 4 21 5 19 6 18 7 16 8 15 9 14 10 13 11 6 12
REMARK SMILES IDX 7 13 8 14 9 15 12 16 11 17 10 18 4 20 20 22 17 24
REMARK H PARENT 10 19 4 21 20 23 17 25
REMARK Flexibility Score: inf
ROOT
ATOM      1  C   UNL     1       4.560 -13.688  15.408  1.00  0.00     0.180 A 
ATOM      2  C   UNL     1       5.617 -13.307  14.564  1.00  0.00     0.208 A 
ATOM      3  C   UNL     1       5.705 -11.971  14.144  1.00  0.00     0.238 A 
ATOM      4  O   UNL     1       6.623 -11.649  13.345  1.00  0.00    -0.285 OA
ATOM      5  C   UNL     1       4.746 -11.028  14.585  1.00  0.00     0.111 A 
ATOM      6  C   UNL     1       4.762  -9.640  14.254  1.00  0.00     0.134 A 
ATOM      7  C   UNL     1       3.690  -8.826  14.640  1.00  0.00     0.093 A 
ATOM      8  C   UNL     1       2.635  -9.336  15.400  1.00  0.00     0.123 A 
ATOM      9  C   UNL     1       2.640 -10.676  15.778  1.00  0.00     0.094 A 
ATOM     10  C   UNL     1       3.677 -11.522  15.378  1.00  0.00     0.146 A 
ATOM     11  O   UNL     1       3.638 -12.795  15.752  1.00  0.00    -0.452 OA
ENDROOT
BRANCH   1  12
ATOM     12  C   UNL     1       4.413 -15.072  15.913  1.00  0.00     0.021 A 
ATOM     13  C   UNL     1       3.940 -16.108  15.086  1.00  0.00     0.016 A 
ATOM     14  C   UNL     1       3.833 -17.413  15.577  1.00  0.00     0.047 A 
ATOM     15  C   UNL     1       4.208 -17.701  16.895  1.00  0.00     0.115 A 
ATOM     16  C   UNL     1       4.806 -15.375  17.228  1.00  0.00     0.016 A 
ATOM     17  C   UNL     1       4.697 -16.680  17.716  1.00  0.00     0.047 A 
BRANCH  15  18
ATOM     18  O   UNL     1       4.104 -18.997  17.397  1.00  0.00    -0.508 OA
ATOM     19  H   UNL     1       3.538 -19.699  16.934  1.00  0.00     0.293 HD
ENDBRANCH  15  18
ENDBRANCH   1  12
BRANCH   2  20
ATOM     20  O   UNL     1       6.541 -14.259  14.123  1.00  0.00    -0.502 OA
ATOM     21  H   UNL     1       7.127 -14.112  13.310  1.00  0.00     0.293 HD
ENDBRANCH   2  20
BRANCH   6  22
ATOM     22  O   UNL     1       5.811  -9.011  13.578  1.00  0.00    -0.507 OA
ATOM     23  H   UNL     1       6.147  -8.081  13.777  1.00  0.00     0.293 HD
ENDBRANCH   6  22
BRANCH   8  24
ATOM     24  O   UNL     1       1.579  -8.516  15.792  1.00  0.00    -0.508 OA
ATOM     25  H   UNL     1       0.649  -8.628  15.407  1.00  0.00     0.293 HD
ENDBRANCH   8  24
TORSDOF 5
ENDMDL
MODEL 8
REMARK VINA RESULT:    -5.032      6.441      8.712
REMARK INTER + INTRA:          -5.941
REMARK INTER:                  -5.698
REMARK INTRA:                  -0.243
REMARK UNBOUND:                -0.026
REMARK SMILES O=c1c(O)c(-c2ccc(O)cc2)oc2cc(O)cc(O)c12
REMARK SMILES IDX 5 1 3 2 2 3 1 4 21 5 19 6 18 7 16 8 15 9 14 10 13 11 6 12
REMARK SMILES IDX 7 13 8 14 9 15 12 16 11 17 10 18 4 20 20 22 17 24
REMARK H PARENT 10 19 4 21 20 23 17 25
REMARK Flexibility Score: inf
ROOT
ATOM      1  C   UNL     1       2.857  -9.463  15.094  1.00  0.00     0.180 A 
ATOM      2  C   UNL     1       2.532  -9.714  16.438  1.00  0.00     0.208 A 
ATOM      3  C   UNL     1       1.235  -9.427  16.890  1.00  0.00     0.238 A 
ATOM      4  O   UNL     1       0.967  -9.603  18.107  1.00  0.00    -0.285 OA
ATOM      5  C   UNL     1       0.273  -8.909  15.990  1.00  0.00     0.111 A 
ATOM      6  C   UNL     1      -1.083  -8.620  16.331  1.00  0.00     0.134 A 
ATOM      7  C   UNL     1      -1.910  -7.988  15.394  1.00  0.00     0.093 A 
ATOM      8  C   UNL     1      -1.449  -7.694  14.108  1.00  0.00     0.123 A 
ATOM      9  C   UNL     1      -0.146  -8.026  13.748  1.00  0.00     0.094 A 
ATOM     10  C   UNL     1       0.714  -8.624  14.672  1.00  0.00     0.146 A 
ATOM     11  O   UNL     1       1.953  -8.915  14.290  1.00  0.00    -0.452 OA
ENDROOT
BRANCH   1  12
ATOM     12  C   UNL     1       4.196  -9.761  14.537  1.00  0.00     0.021 A 
ATOM     13  C   UNL     1       5.149  -8.746  14.336  1.00  0.00     0.016 A 
ATOM     14  C   UNL     1       6.416  -9.054  13.832  1.00  0.00     0.047 A 
ATOM     15  C   UNL     1       6.751 -10.382  13.534  1.00  0.00     0.115 A 
ATOM     16  C   UNL     1       4.548 -11.092  14.255  1.00  0.00     0.016 A 
ATOM     17  C   UNL     1       5.815 -11.398  13.750  1.00  0.00     0.047 A 
BRANCH  15  18
ATOM     18  O   UNL     1       8.009 -10.702  13.029  1.00  0.00    -0.508 OA
ATOM     19  H   UNL     1       8.646 -11.305  13.538  1.00  0.00     0.293 HD
ENDBRANCH  15  18
ENDBRANCH   1  12
BRANCH   2  20
ATOM     20  O   UNL     1       3.503 -10.205  17.315  1.00  0.00    -0.502 OA
ATOM     21  H   UNL     1       4.267  -9.633  17.656  1.00  0.00     0.293 HD
ENDBRANCH   2  20
BRANCH   6  22
ATOM     22  O   UNL     1      -1.669  -8.956  17.554  1.00  0.00    -0.507 OA
ATOM     23  H   UNL     1      -2.492  -9.528  17.659  1.00  0.00     0.293 HD
ENDBRANCH   6  22
BRANCH   8  24
ATOM     24  O   UNL     1      -2.284  -7.079  13.177  1.00  0.00    -0.508 OA
ATOM     25  H   UNL     1      -2.552  -7.543  12.318  1.00  0.00     0.293 HD
ENDBRANCH   8  24
TORSDOF 5
ENDMDL
MODEL 9
REMARK VINA RESULT:    -5.029      2.528      6.954
REMARK INTER + INTRA:          -5.937
REMARK INTER:                  -5.652
REMARK INTRA:                  -0.286
REMARK UNBOUND:                -0.026
REMARK SMILES O=c1c(O)c(-c2ccc(O)cc2)oc2cc(O)cc(O)c12
REMARK SMILES IDX 5 1 3 2 2 3 1 4 21 5 19 6 18 7 16 8 15 9 14 10 13 11 6 12
REMARK SMILES IDX 7 13 8 14 9 15 12 16 11 17 10 18 4 20 20 22 17 24
REMARK H PARENT 10 19 4 21 20 23 17 25
REMARK Flexibility Score: inf
ROOT
ATOM      1  C   UNL     1       5.046 -17.354  15.563  1.00  0.00     0.180 A 
ATOM      2  C   UNL     1       5.238 -18.215  14.468  1.00  0.00     0.208 A 
ATOM      3  C   UNL     1       5.958 -19.405  14.656  1.00  0.00     0.238 A 
ATOM      4  O   UNL     1       6.172 -20.144  13.660  1.00  0.00    -0.285 OA
ATOM      5  C   UNL     1       6.464 -19.728  15.938  1.00  0.00     0.111 A 
ATOM      6  C   UNL     1       7.173 -20.927  16.250  1.00  0.00     0.134 A 
ATOM      7  C   UNL     1       7.741 -21.082  17.521  1.00  0.00     0.093 A 
ATOM      8  C   UNL     1       7.570 -20.110  18.510  1.00  0.00     0.123 A 
ATOM      9  C   UNL     1       6.829 -18.964  18.232  1.00  0.00     0.094 A 
ATOM     10  C   UNL     1       6.281 -18.764  16.963  1.00  0.00     0.146 A 
ATOM     11  O   UNL     1       5.590 -17.653  16.738  1.00  0.00    -0.452 OA
ENDROOT
BRANCH   1  12
ATOM     12  C   UNL     1       4.277 -16.093  15.450  1.00  0.00     0.021 A 
ATOM     13  C   UNL     1       2.872 -16.084  15.521  1.00  0.00     0.016 A 
ATOM     14  C   UNL     1       2.168 -14.879  15.437  1.00  0.00     0.047 A 
ATOM     15  C   UNL     1       2.858 -13.668  15.294  1.00  0.00     0.115 A 
ATOM     16  C   UNL     1       4.962 -14.873  15.329  1.00  0.00     0.016 A 
ATOM     17  C   UNL     1       4.256 -13.670  15.244  1.00  0.00     0.047 A 
BRANCH  15  18
ATOM     18  O   UNL     1       2.168 -12.462  15.208  1.00  0.00    -0.508 OA
ATOM     19  H   UNL     1       1.469 -12.202  15.893  1.00  0.00     0.293 HD
ENDBRANCH  15  18
ENDBRANCH   1  12
BRANCH   2  20
ATOM     20  O   UNL     1       4.748 -17.865  13.207  1.00  0.00    -0.502 OA
ATOM     21  H   UNL     1       3.962 -17.238  13.083  1.00  0.00     0.293 HD
ENDBRANCH   2  20
BRANCH   6  22
ATOM     22  O   UNL     1       7.324 -21.998  15.365  1.00  0.00    -0.507 OA
ATOM     23  H   UNL     1       7.332 -21.916  14.360  1.00  0.00     0.293 HD
ENDBRANCH   6  22
BRANCH   8  24
ATOM     24  O   UNL     1       8.125 -20.278  19.777  1.00  0.00    -0.508 OA
ATOM     25  H   UNL     1       7.986 -19.595  20.511  1.00  0.00     0.293 HD
ENDBRANCH   8  24
TORSDOF 5
ENDMDL
