MODEL 1
REMARK VINA RESULT:    77.308      0.000      0.000
REMARK INTER + INTRA:         110.403
REMARK INTER:                 111.203
REMARK INTRA:                  -0.801
REMARK UNBOUND:                -0.801
REMARK SMILES O=c1c(O[C@@H]2O[C@H](CO)[C@H](O)[C@H](O)[C@H]2O)c(-c2ccc(O)cc2)oc2cc(O)cc(O)c12
REMARK SMILES IDX 4 1 3 2 16 3 24 4 2 5 25 6 1 7 32 8 26 9 30 10 27 11 29 12
REMARK SMILES IDX 17 13 18 14 19 15 20 16 23 17 22 18 21 19 31 21 28 23 5 25
REMARK SMILES IDX 14 26 6 27 12 28 7 29 10 30 15 31 13 33 8 35 9 36 11 38
REMARK H PARENT 21 20 31 22 28 24 15 32 13 34 9 37 11 39
REMARK Flexibility Score: inf
ROOT
ATOM      1  O   UNL     1     -38.811  31.028 -23.770  1.00  0.00    -0.454 OA
ENDROOT
BRANCH   1   2
ATOM      2  C   UNL     1     -39.961  30.838 -22.977  1.00  0.00     0.214 A 
ATOM      3  C   UNL     1     -39.941  29.852 -21.977  1.00  0.00     0.180 A 
ATOM      4  O   UNL     1     -40.995  29.682 -21.182  1.00  0.00    -0.452 OA
ATOM      5  C   UNL     1     -41.133  31.614 -23.130  1.00  0.00     0.239 A 
ATOM      6  C   UNL     1     -42.114  30.377 -21.299  1.00  0.00     0.146 A 
ATOM      7  O   UNL     1     -41.157  32.528 -23.990  1.00  0.00    -0.285 OA
ATOM      8  C   UNL     1     -42.257  31.361 -22.306  1.00  0.00     0.111 A 
ATOM      9  C   UNL     1     -43.152  30.134 -20.398  1.00  0.00     0.094 A 
ATOM     10  C   UNL     1     -43.498  32.059 -22.401  1.00  0.00     0.134 A 
ATOM     11  C   UNL     1     -44.336  30.861 -20.457  1.00  0.00     0.123 A 
ATOM     12  C   UNL     1     -44.501  31.828 -21.452  1.00  0.00     0.093 A 
BRANCH   3  13
ATOM     13  C   UNL     1     -38.756  29.006 -21.733  1.00  0.00     0.021 A 
ATOM     14  C   UNL     1     -37.800  29.410 -20.806  1.00  0.00     0.016 A 
ATOM     15  C   UNL     1     -36.692  28.599 -20.525  1.00  0.00     0.047 A 
ATOM     16  C   UNL     1     -36.554  27.351 -21.159  1.00  0.00     0.115 A 
ATOM     17  C   UNL     1     -38.610  27.754 -22.367  1.00  0.00     0.016 A 
ATOM     18  C   UNL     1     -37.514  26.938 -22.074  1.00  0.00     0.047 A 
BRANCH  16  19
ATOM     19  O   UNL     1     -35.467  26.529 -20.863  1.00  0.00    -0.508 OA
ATOM     20  H   UNL     1     -35.053  25.929 -21.562  1.00  0.00     0.293 HD
ENDBRANCH  16  19
ENDBRANCH   3  13
BRANCH  10  21
ATOM     21  O   UNL     1     -43.806  32.962 -23.425  1.00  0.00    -0.507 OA
ATOM     22  H   UNL     1     -44.189  33.885 -23.274  1.00  0.00     0.293 HD
ENDBRANCH  10  21
BRANCH  11  23
ATOM     23  O   UNL     1     -45.340  30.615 -19.523  1.00  0.00    -0.508 OA
ATOM     24  H   UNL     1     -46.014  31.322 -19.280  1.00  0.00     0.293 HD
ENDBRANCH  11  23
ENDBRANCH   1   2
BRANCH   1  25
ATOM     25  C   UNL     1     -38.793  31.675 -25.042  1.00  0.00     0.339 C 
ATOM     26  C   UNL     1     -38.125  33.070 -24.943  1.00  0.00     0.214 C 
ATOM     27  O   UNL     1     -38.223  30.856 -26.060  1.00  0.00    -0.332 OA
ATOM     28  C   UNL     1     -36.626  32.934 -24.687  1.00  0.00     0.180 C 
ATOM     29  C   UNL     1     -36.806  30.681 -25.978  1.00  0.00     0.179 C 
ATOM     30  C   UNL     1     -36.013  32.009 -25.762  1.00  0.00     0.177 C 
BRANCH  26  31
ATOM     31  O   UNL     1     -38.333  33.813 -26.125  1.00  0.00    -0.384 OA
ATOM     32  H   UNL     1     -37.571  33.626 -26.726  1.00  0.00     0.211 HD
ENDBRANCH  26  31
BRANCH  28  33
ATOM     33  O   UNL     1     -36.415  32.530 -23.348  1.00  0.00    -0.387 OA
ATOM     34  H   UNL     1     -37.253  32.137 -22.979  1.00  0.00     0.211 HD
ENDBRANCH  28  33
BRANCH  29  35
ATOM     35  C   UNL     1     -36.402  29.434 -25.156  1.00  0.00     0.191 C 
BRANCH  35  36
ATOM     36  O   UNL     1     -35.342  29.701 -24.278  1.00  0.00    -0.394 OA
ATOM     37  H   UNL     1     -34.890  28.846 -24.053  1.00  0.00     0.210 HD
ENDBRANCH  35  36
ENDBRANCH  29  35
BRANCH  30  38
ATOM     38  O   UNL     1     -34.622  31.839 -25.618  1.00  0.00    -0.387 OA
ATOM     39  H   UNL     1     -34.452  31.271 -24.827  1.00  0.00     0.211 HD
ENDBRANCH  30  38
ENDBRANCH   1  25
TORSDOF 11
ENDMDL
MODEL 2
REMARK VINA RESULT:    79.993      1.715      5.029
REMARK INTER + INTRA:         114.265
REMARK INTER:                 111.068
REMARK INTRA:                   3.197
REMARK UNBOUND:                -0.801
REMARK SMILES O=c1c(O[C@@H]2O[C@H](CO)[C@H](O)[C@H](O)[C@H]2O)c(-c2ccc(O)cc2)oc2cc(O)cc(O)c12
REMARK SMILES IDX 4 1 3 2 16 3 24 4 2 5 25 6 1 7 32 8 26 9 30 10 27 11 29 12
REMARK SMILES IDX 17 13 18 14 19 15 20 16 23 17 22 18 21 19 31 21 28 23 5 25
REMARK SMILES IDX 14 26 6 27 12 28 7 29 10 30 15 31 13 33 8 35 9 36 11 38
REMARK H PARENT 21 20 31 22 28 24 15 32 13 34 9 37 11 39
REMARK Flexibility Score: inf
ROOT
ATOM      1  O   UNL     1     -38.885  29.094 -21.927  1.00  0.00    -0.454 OA
ENDROOT
BRANCH   1   2
ATOM      2  C   UNL     1     -40.036  29.883 -22.127  1.00  0.00     0.214 A 
ATOM      3  C   UNL     1     -40.004  30.896 -23.100  1.00  0.00     0.180 A 
ATOM      4  O   UNL     1     -41.091  31.625 -23.344  1.00  0.00    -0.452 OA
ATOM      5  C   UNL     1     -41.234  29.687 -21.402  1.00  0.00     0.239 A 
ATOM      6  C   UNL     1     -42.226  31.483 -22.680  1.00  0.00     0.146 A 
ATOM      7  O   UNL     1     -41.296  28.762 -20.557  1.00  0.00    -0.285 OA
ATOM      8  C   UNL     1     -42.349  30.525 -21.646  1.00  0.00     0.111 A 
ATOM      9  C   UNL     1     -43.313  32.285 -23.031  1.00  0.00     0.094 A 
ATOM     10  C   UNL     1     -43.590  30.437 -20.947  1.00  0.00     0.134 A 
ATOM     11  C   UNL     1     -44.538  32.152 -22.387  1.00  0.00     0.123 A 
ATOM     12  C   UNL     1     -44.676  31.221 -21.355  1.00  0.00     0.093 A 
BRANCH   3  13
ATOM     13  C   UNL     1     -38.804  31.161 -23.918  1.00  0.00     0.021 A 
ATOM     14  C   UNL     1     -38.813  32.206 -24.837  1.00  0.00     0.016 A 
ATOM     15  C   UNL     1     -37.669  32.505 -25.589  1.00  0.00     0.047 A 
ATOM     16  C   UNL     1     -36.488  31.765 -25.396  1.00  0.00     0.115 A 
ATOM     17  C   UNL     1     -37.617  30.423 -23.731  1.00  0.00     0.016 A 
ATOM     18  C   UNL     1     -36.470  30.731 -24.469  1.00  0.00     0.047 A 
BRANCH  16  19
ATOM     19  O   UNL     1     -35.338  32.076 -26.123  1.00  0.00    -0.508 OA
ATOM     20  H   UNL     1     -35.175  31.693 -27.043  1.00  0.00     0.293 HD
ENDBRANCH  16  19
ENDBRANCH   3  13
BRANCH  10  21
ATOM     21  O   UNL     1     -43.796  29.621 -19.828  1.00  0.00    -0.507 OA
ATOM     22  H   UNL     1     -43.771  29.950 -18.872  1.00  0.00     0.293 HD
ENDBRANCH  10  21
BRANCH  11  23
ATOM     23  O   UNL     1     -45.612  32.947 -22.783  1.00  0.00    -0.508 OA
ATOM     24  H   UNL     1     -46.563  32.638 -22.670  1.00  0.00     0.293 HD
ENDBRANCH  11  23
ENDBRANCH   1   2
BRANCH   1  25
ATOM     25  C   UNL     1     -38.239  28.321 -22.938  1.00  0.00     0.339 C 
ATOM     26  C   UNL     1     -36.811  27.915 -22.496  1.00  0.00     0.214 C 
ATOM     27  O   UNL     1     -39.028  27.209 -23.358  1.00  0.00    -0.332 OA
ATOM     28  C   UNL     1     -36.865  26.892 -21.364  1.00  0.00     0.180 C 
ATOM     29  C   UNL     1     -39.125  26.141 -22.412  1.00  0.00     0.179 C 
ATOM     30  C   UNL     1     -37.756  25.707 -21.799  1.00  0.00     0.177 C 
BRANCH  26  31
ATOM     31  O   UNL     1     -36.082  27.379 -23.579  1.00  0.00    -0.384 OA
ATOM     32  H   UNL     1     -36.427  26.467 -23.741  1.00  0.00     0.211 HD
ENDBRANCH  26  31
BRANCH  28  33
ATOM     33  O   UNL     1     -37.254  27.538 -20.168  1.00  0.00    -0.387 OA
ATOM     34  H   UNL     1     -38.170  27.245 -19.910  1.00  0.00     0.211 HD
ENDBRANCH  28  33
BRANCH  29  35
ATOM     35  C   UNL     1     -40.347  26.280 -21.473  1.00  0.00     0.191 C 
BRANCH  35  36
ATOM     36  O   UNL     1     -41.524  25.794 -22.061  1.00  0.00    -0.394 OA
ATOM     37  H   UNL     1     -42.301  26.108 -21.528  1.00  0.00     0.210 HD
ENDBRANCH  35  36
ENDBRANCH  29  35
BRANCH  30  38
ATOM     38  O   UNL     1     -37.850  24.698 -20.821  1.00  0.00    -0.387 OA
ATOM     39  H   UNL     1     -38.773  24.343 -20.819  1.00  0.00     0.211 HD
ENDBRANCH  30  38
ENDBRANCH   1  25
TORSDOF 11
ENDMDL
