MODEL 1
REMARK VINA RESULT:    -3.958      0.000      0.000
REMARK INTER + INTRA:          -8.081
REMARK INTER:                  -6.734
REMARK INTRA:                  -1.347
REMARK UNBOUND:                -1.347
REMARK SMILES CCCCCCCCCCCCCC(=O)[O-]
REMARK SMILES IDX 8 1 9 2 10 3 11 4 12 5 13 6 14 7 15 8 16 9 7 10 6 11 5 12
REMARK SMILES IDX 4 13 3 14 2 15 1 16
REMARK H PARENT
REMARK Flexibility Score: inf
ROOT
ATOM      1  C   UNL     1      11.085  63.002   9.027  1.00  0.00     0.000 C 
ENDROOT
BRANCH   1   2
ATOM      2  C   UNL     1       9.787  63.732   8.650  1.00  0.00     0.000 C 
BRANCH   2   3
ATOM      3  C   UNL     1       9.972  65.254   8.733  1.00  0.00     0.000 C 
BRANCH   3   4
ATOM      4  C   UNL     1       8.714  66.029   8.309  1.00  0.00     0.000 C 
BRANCH   4   5
ATOM      5  C   UNL     1       7.508  65.741   9.215  1.00  0.00     0.006 C 
BRANCH   5   6
ATOM      6  C   UNL     1       6.239  65.523   8.385  1.00  0.00     0.053 C 
BRANCH   6   7
ATOM      7  C   UNL     1       5.717  64.135   8.578  1.00  0.00     0.041 C 
ATOM      8  O   UNL     1       4.567  63.950   9.056  1.00  0.00    -0.550 OA
ATOM      9  O   UNL     1       6.519  63.042   8.275  1.00  0.00    -0.550 OA
ENDBRANCH   6   7
ENDBRANCH   5   6
ENDBRANCH   4   5
ENDBRANCH   3   4
ENDBRANCH   2   3
ENDBRANCH   1   2
BRANCH   1  10
ATOM     10  C   UNL     1      11.553  62.013   7.944  1.00  0.00     0.000 C 
BRANCH  10  11
ATOM     11  C   UNL     1      12.688  62.527   7.040  1.00  0.00    -0.000 C 
BRANCH  11  12
ATOM     12  C   UNL     1      13.463  63.701   7.659  1.00  0.00    -0.000 C 
BRANCH  12  13
ATOM     13  C   UNL     1      13.881  64.712   6.581  1.00  0.00    -0.000 C 
BRANCH  13  14
ATOM     14  C   UNL     1      12.896  65.887   6.446  1.00  0.00    -0.000 C 
BRANCH  14  15
ATOM     15  C   UNL     1      11.706  65.627   5.506  1.00  0.00    -0.003 C 
ATOM     16  C   UNL     1      12.132  65.132   4.125  1.00  0.00     0.004 C 
ENDBRANCH  14  15
ENDBRANCH  13  14
ENDBRANCH  12  13
ENDBRANCH  11  12
ENDBRANCH  10  11
ENDBRANCH   1  10
TORSDOF 12
ENDMDL
MODEL 2
REMARK VINA RESULT:    -3.855      3.700      5.802
REMARK INTER + INTRA:          -7.906
REMARK INTER:                  -6.078
REMARK INTRA:                  -1.827
REMARK UNBOUND:                -1.347
REMARK SMILES CCCCCCCCCCCCCC(=O)[O-]
REMARK SMILES IDX 8 1 9 2 10 3 11 4 12 5 13 6 14 7 15 8 16 9 7 10 6 11 5 12
REMARK SMILES IDX 4 13 3 14 2 15 1 16
REMARK H PARENT
REMARK Flexibility Score: inf
ROOT
ATOM      1  C   UNL     1      12.669  62.561   7.108  1.00  0.00     0.000 C 
ENDROOT
BRANCH   1   2
ATOM      2  C   UNL     1      13.300  63.846   7.666  1.00  0.00     0.000 C 
BRANCH   2   3
ATOM      3  C   UNL     1      13.518  64.877   6.549  1.00  0.00     0.000 C 
BRANCH   3   4
ATOM      4  C   UNL     1      12.553  64.685   5.368  1.00  0.00     0.000 C 
BRANCH   4   5
ATOM      5  C   UNL     1      12.093  66.017   4.757  1.00  0.00     0.006 C 
BRANCH   5   6
ATOM      6  C   UNL     1      11.153  65.779   3.570  1.00  0.00     0.053 C 
BRANCH   6   7
ATOM      7  C   UNL     1      11.647  66.502   2.357  1.00  0.00     0.041 C 
ATOM      8  O   UNL     1      12.805  66.281   1.915  1.00  0.00    -0.550 OA
ATOM      9  O   UNL     1      10.847  67.456   1.743  1.00  0.00    -0.550 OA
ENDBRANCH   6   7
ENDBRANCH   5   6
ENDBRANCH   4   5
ENDBRANCH   3   4
ENDBRANCH   2   3
ENDBRANCH   1   2
BRANCH   1  10
ATOM     10  C   UNL     1      11.510  62.036   7.975  1.00  0.00     0.000 C 
BRANCH  10  11
ATOM     11  C   UNL     1      10.893  63.072   8.932  1.00  0.00    -0.000 C 
BRANCH  11  12
ATOM     12  C   UNL     1       9.481  63.510   8.512  1.00  0.00    -0.000 C 
BRANCH  12  13
ATOM     13  C   UNL     1       9.270  65.009   8.778  1.00  0.00    -0.000 C 
BRANCH  13  14
ATOM     14  C   UNL     1       9.898  65.904   7.694  1.00  0.00    -0.000 C 
BRANCH  14  15
ATOM     15  C   UNL     1      10.928  66.921   8.213  1.00  0.00    -0.003 C 
ATOM     16  C   UNL     1      11.390  66.630   9.640  1.00  0.00     0.004 C 
ENDBRANCH  14  15
ENDBRANCH  13  14
ENDBRANCH  12  13
ENDBRANCH  11  12
ENDBRANCH  10  11
ENDBRANCH   1  10
TORSDOF 12
ENDMDL
MODEL 3
REMARK VINA RESULT:    -3.851      3.840      5.959
REMARK INTER + INTRA:          -7.900
REMARK INTER:                  -6.209
REMARK INTRA:                  -1.691
REMARK UNBOUND:                -1.347
REMARK SMILES CCCCCCCCCCCCCC(=O)[O-]
REMARK SMILES IDX 8 1 9 2 10 3 11 4 12 5 13 6 14 7 15 8 16 9 7 10 6 11 5 12
REMARK SMILES IDX 4 13 3 14 2 15 1 16
REMARK H PARENT
REMARK Flexibility Score: inf
ROOT
ATOM      1  C   UNL     1      13.312  64.066   7.938  1.00  0.00     0.000 C 
ENDROOT
BRANCH   1   2
ATOM      2  C   UNL     1      13.545  65.144   6.868  1.00  0.00     0.000 C 
BRANCH   2   3
ATOM      3  C   UNL     1      12.658  64.895   5.639  1.00  0.00     0.000 C 
BRANCH   3   4
ATOM      4  C   UNL     1      11.416  65.801   5.612  1.00  0.00     0.000 C 
BRANCH   4   5
ATOM      5  C   UNL     1      10.916  66.077   4.186  1.00  0.00     0.006 C 
BRANCH   5   6
ATOM      6  C   UNL     1      11.885  65.508   3.145  1.00  0.00     0.053 C 
BRANCH   6   7
ATOM      7  C   UNL     1      12.470  66.607   2.317  1.00  0.00     0.041 C 
ATOM      8  O   UNL     1      12.135  67.803   2.524  1.00  0.00    -0.550 OA
ATOM      9  O   UNL     1      13.347  66.307   1.283  1.00  0.00    -0.550 OA
ENDBRANCH   6   7
ENDBRANCH   5   6
ENDBRANCH   4   5
ENDBRANCH   3   4
ENDBRANCH   2   3
ENDBRANCH   1   2
BRANCH   1  10
ATOM     10  C   UNL     1      12.876  62.714   7.343  1.00  0.00     0.000 C 
BRANCH  10  11
ATOM     11  C   UNL     1      11.555  62.154   7.900  1.00  0.00    -0.000 C 
BRANCH  11  12
ATOM     12  C   UNL     1      10.942  63.040   8.995  1.00  0.00    -0.000 C 
BRANCH  12  13
ATOM     13  C   UNL     1       9.527  63.495   8.604  1.00  0.00    -0.000 C 
BRANCH  13  14
ATOM     14  C   UNL     1       9.367  65.026   8.607  1.00  0.00    -0.000 C 
BRANCH  14  15
ATOM     15  C   UNL     1      10.493  65.792   9.321  1.00  0.00    -0.003 C 
ATOM     16  C   UNL     1      10.565  67.264   8.916  1.00  0.00     0.004 C 
ENDBRANCH  14  15
ENDBRANCH  13  14
ENDBRANCH  12  13
ENDBRANCH  11  12
ENDBRANCH  10  11
ENDBRANCH   1  10
TORSDOF 12
ENDMDL
MODEL 4
REMARK VINA RESULT:    -3.797      3.235      5.530
REMARK INTER + INTRA:          -7.808
REMARK INTER:                  -5.808
REMARK INTRA:                  -2.000
REMARK UNBOUND:                -1.347
REMARK SMILES CCCCCCCCCCCCCC(=O)[O-]
REMARK SMILES IDX 8 1 9 2 10 3 11 4 12 5 13 6 14 7 15 8 16 9 7 10 6 11 5 12
REMARK SMILES IDX 4 13 3 14 2 15 1 16
REMARK H PARENT
REMARK Flexibility Score: inf
ROOT
ATOM      1  C   UNL     1      12.851  62.610   7.247  1.00  0.00     0.000 C 
ENDROOT
BRANCH   1   2
ATOM      2  C   UNL     1      13.502  63.876   7.823  1.00  0.00     0.000 C 
BRANCH   2   3
ATOM      3  C   UNL     1      13.970  64.811   6.698  1.00  0.00     0.000 C 
BRANCH   3   4
ATOM      4  C   UNL     1      13.112  66.081   6.588  1.00  0.00     0.000 C 
BRANCH   4   5
ATOM      5  C   UNL     1      11.876  65.885   5.697  1.00  0.00     0.006 C 
BRANCH   5   6
ATOM      6  C   UNL     1      12.201  64.990   4.498  1.00  0.00     0.053 C 
BRANCH   6   7
ATOM      7  C   UNL     1      11.664  65.587   3.236  1.00  0.00     0.041 C 
ATOM      8  O   UNL     1      12.432  66.200   2.449  1.00  0.00    -0.550 OA
ATOM      9  O   UNL     1      10.307  65.508   2.952  1.00  0.00    -0.550 OA
ENDBRANCH   6   7
ENDBRANCH   5   6
ENDBRANCH   4   5
ENDBRANCH   3   4
ENDBRANCH   2   3
ENDBRANCH   1   2
BRANCH   1  10
ATOM     10  C   UNL     1      11.499  62.277   7.905  1.00  0.00     0.000 C 
BRANCH  10  11
ATOM     11  C   UNL     1      11.061  63.248   9.017  1.00  0.00    -0.000 C 
BRANCH  11  12
ATOM     12  C   UNL     1       9.973  64.232   8.559  1.00  0.00    -0.000 C 
BRANCH  12  13
ATOM     13  C   UNL     1      10.293  65.660   9.026  1.00  0.00    -0.000 C 
BRANCH  13  14
ATOM     14  C   UNL     1      11.235  65.696  10.243  1.00  0.00    -0.000 C 
BRANCH  14  15
ATOM     15  C   UNL     1      12.429  66.656  10.109  1.00  0.00    -0.003 C 
ATOM     16  C   UNL     1      12.039  68.021   9.545  1.00  0.00     0.004 C 
ENDBRANCH  14  15
ENDBRANCH  13  14
ENDBRANCH  12  13
ENDBRANCH  11  12
ENDBRANCH  10  11
ENDBRANCH   1  10
TORSDOF 12
ENDMDL
MODEL 5
REMARK VINA RESULT:    -3.738      1.141      2.361
REMARK INTER + INTRA:          -7.707
REMARK INTER:                  -5.897
REMARK INTRA:                  -1.809
REMARK UNBOUND:                -1.347
REMARK SMILES CCCCCCCCCCCCCC(=O)[O-]
REMARK SMILES IDX 8 1 9 2 10 3 11 4 12 5 13 6 14 7 15 8 16 9 7 10 6 11 5 12
REMARK SMILES IDX 4 13 3 14 2 15 1 16
REMARK H PARENT
REMARK Flexibility Score: inf
ROOT
ATOM      1  C   UNL     1      12.627  62.839   6.980  1.00  0.00     0.000 C 
ENDROOT
BRANCH   1   2
ATOM      2  C   UNL     1      11.652  62.165   7.957  1.00  0.00     0.000 C 
BRANCH   2   3
ATOM      3  C   UNL     1      11.058  63.192   8.932  1.00  0.00     0.000 C 
BRANCH   3   4
ATOM      4  C   UNL     1       9.821  63.904   8.362  1.00  0.00     0.000 C 
BRANCH   4   5
ATOM      5  C   UNL     1       9.591  65.286   8.992  1.00  0.00     0.006 C 
BRANCH   5   6
ATOM      6  C   UNL     1       8.360  65.967   8.385  1.00  0.00     0.053 C 
BRANCH   6   7
ATOM      7  C   UNL     1       7.120  65.553   9.111  1.00  0.00     0.041 C 
ATOM      8  O   UNL     1       6.806  66.109  10.196  1.00  0.00    -0.550 OA
ATOM      9  O   UNL     1       6.336  64.520   8.615  1.00  0.00    -0.550 OA
ENDBRANCH   6   7
ENDBRANCH   5   6
ENDBRANCH   4   5
ENDBRANCH   3   4
ENDBRANCH   2   3
ENDBRANCH   1   2
BRANCH   1  10
ATOM     10  C   UNL     1      13.564  63.849   7.668  1.00  0.00     0.000 C 
BRANCH  10  11
ATOM     11  C   UNL     1      13.680  65.213   6.965  1.00  0.00    -0.000 C 
BRANCH  11  12
ATOM     12  C   UNL     1      12.822  66.304   7.625  1.00  0.00    -0.000 C 
BRANCH  12  13
ATOM     13  C   UNL     1      11.892  66.966   6.598  1.00  0.00    -0.000 C 
BRANCH  13  14
ATOM     14  C   UNL     1      11.228  65.952   5.648  1.00  0.00    -0.000 C 
BRANCH  14  15
ATOM     15  C   UNL     1      11.491  66.199   4.153  1.00  0.00    -0.003 C 
ATOM     16  C   UNL     1      12.011  64.961   3.425  1.00  0.00     0.004 C 
ENDBRANCH  14  15
ENDBRANCH  13  14
ENDBRANCH  12  13
ENDBRANCH  11  12
ENDBRANCH  10  11
ENDBRANCH   1  10
TORSDOF 12
ENDMDL
MODEL 6
REMARK VINA RESULT:    -3.725      2.601      6.228
REMARK INTER + INTRA:          -7.684
REMARK INTER:                  -6.636
REMARK INTRA:                  -1.049
REMARK UNBOUND:                -1.347
REMARK SMILES CCCCCCCCCCCCCC(=O)[O-]
REMARK SMILES IDX 8 1 9 2 10 3 11 4 12 5 13 6 14 7 15 8 16 9 7 10 6 11 5 12
REMARK SMILES IDX 4 13 3 14 2 15 1 16
REMARK H PARENT
REMARK Flexibility Score: inf
ROOT
ATOM      1  C   UNL     1      10.944  63.032   8.964  1.00  0.00     0.000 C 
ENDROOT
BRANCH   1   2
ATOM      2  C   UNL     1      11.581  61.985   8.038  1.00  0.00     0.000 C 
BRANCH   2   3
ATOM      3  C   UNL     1      12.638  62.629   7.129  1.00  0.00     0.000 C 
BRANCH   3   4
ATOM      4  C   UNL     1      13.228  63.917   7.727  1.00  0.00     0.000 C 
BRANCH   4   5
ATOM      5  C   UNL     1      13.175  65.101   6.750  1.00  0.00     0.006 C 
BRANCH   5   6
ATOM      6  C   UNL     1      12.510  64.694   5.431  1.00  0.00     0.053 C 
BRANCH   6   7
ATOM      7  C   UNL     1      11.684  65.818   4.893  1.00  0.00     0.041 C 
ATOM      8  O   UNL     1      11.927  66.294   3.752  1.00  0.00    -0.550 OA
ATOM      9  O   UNL     1      10.675  66.374   5.668  1.00  0.00    -0.550 OA
ENDBRANCH   6   7
ENDBRANCH   5   6
ENDBRANCH   4   5
ENDBRANCH   3   4
ENDBRANCH   2   3
ENDBRANCH   1   2
BRANCH   1  10
ATOM     10  C   UNL     1       9.540  63.465   8.504  1.00  0.00     0.000 C 
BRANCH  10  11
ATOM     11  C   UNL     1       9.264  64.977   8.590  1.00  0.00    -0.000 C 
BRANCH  11  12
ATOM     12  C   UNL     1       7.800  65.303   8.922  1.00  0.00    -0.000 C 
BRANCH  12  13
ATOM     13  C   UNL     1       6.898  64.082   8.682  1.00  0.00    -0.000 C 
BRANCH  13  14
ATOM     14  C   UNL     1       5.407  64.450   8.577  1.00  0.00    -0.000 C 
BRANCH  14  15
ATOM     15  C   UNL     1       5.098  65.636   7.648  1.00  0.00    -0.003 C 
ATOM     16  C   UNL     1       4.226  66.702   8.310  1.00  0.00     0.004 C 
ENDBRANCH  14  15
ENDBRANCH  13  14
ENDBRANCH  12  13
ENDBRANCH  11  12
ENDBRANCH  10  11
ENDBRANCH   1  10
TORSDOF 12
ENDMDL
MODEL 7
REMARK VINA RESULT:    -3.698      2.822      5.824
REMARK INTER + INTRA:          -7.639
REMARK INTER:                  -6.522
REMARK INTRA:                  -1.117
REMARK UNBOUND:                -1.347
REMARK SMILES CCCCCCCCCCCCCC(=O)[O-]
REMARK SMILES IDX 8 1 9 2 10 3 11 4 12 5 13 6 14 7 15 8 16 9 7 10 6 11 5 12
REMARK SMILES IDX 4 13 3 14 2 15 1 16
REMARK H PARENT
REMARK Flexibility Score: inf
ROOT
ATOM      1  C   UNL     1      12.127  62.745   7.611  1.00  0.00     0.000 C 
ENDROOT
BRANCH   1   2
ATOM      2  C   UNL     1      13.429  63.506   7.903  1.00  0.00     0.000 C 
BRANCH   2   3
ATOM      3  C   UNL     1      13.699  64.563   6.823  1.00  0.00     0.000 C 
BRANCH   3   4
ATOM      4  C   UNL     1      12.611  64.593   5.738  1.00  0.00     0.000 C 
BRANCH   4   5
ATOM      5  C   UNL     1      12.305  66.015   5.244  1.00  0.00     0.006 C 
BRANCH   5   6
ATOM      6  C   UNL     1      10.819  66.170   4.906  1.00  0.00     0.053 C 
BRANCH   6   7
ATOM      7  C   UNL     1      10.610  66.115   3.426  1.00  0.00     0.041 C 
ATOM      8  O   UNL     1       9.475  65.835   2.956  1.00  0.00    -0.550 OA
ATOM      9  O   UNL     1      11.678  66.327   2.564  1.00  0.00    -0.550 OA
ENDBRANCH   6   7
ENDBRANCH   5   6
ENDBRANCH   4   5
ENDBRANCH   3   4
ENDBRANCH   2   3
ENDBRANCH   1   2
BRANCH   1  10
ATOM     10  C   UNL     1      11.121  62.808   8.776  1.00  0.00     0.000 C 
BRANCH  10  11
ATOM     11  C   UNL     1       9.760  63.436   8.427  1.00  0.00    -0.000 C 
BRANCH  11  12
ATOM     12  C   UNL     1       9.806  64.970   8.360  1.00  0.00    -0.000 C 
BRANCH  12  13
ATOM     13  C   UNL     1       8.451  65.578   8.755  1.00  0.00    -0.000 C 
BRANCH  13  14
ATOM     14  C   UNL     1       7.315  64.540   8.788  1.00  0.00    -0.000 C 
BRANCH  14  15
ATOM     15  C   UNL     1       5.927  65.090   8.420  1.00  0.00    -0.003 C 
ATOM     16  C   UNL     1       4.782  64.244   8.975  1.00  0.00     0.004 C 
ENDBRANCH  14  15
ENDBRANCH  13  14
ENDBRANCH  12  13
ENDBRANCH  11  12
ENDBRANCH  10  11
ENDBRANCH   1  10
TORSDOF 12
ENDMDL
MODEL 8
REMARK VINA RESULT:    -3.688      4.012      6.038
REMARK INTER + INTRA:          -7.622
REMARK INTER:                  -5.943
REMARK INTRA:                  -1.679
REMARK UNBOUND:                -1.347
REMARK SMILES CCCCCCCCCCCCCC(=O)[O-]
REMARK SMILES IDX 8 1 9 2 10 3 11 4 12 5 13 6 14 7 15 8 16 9 7 10 6 11 5 12
REMARK SMILES IDX 4 13 3 14 2 15 1 16
REMARK H PARENT
REMARK Flexibility Score: inf
ROOT
ATOM      1  C   UNL     1      13.217  65.449   6.524  1.00  0.00     0.000 C 
ENDROOT
BRANCH   1   2
ATOM      2  C   UNL     1      12.244  65.309   5.343  1.00  0.00     0.000 C 
BRANCH   2   3
ATOM      3  C   UNL     1      10.936  66.066   5.620  1.00  0.00     0.000 C 
BRANCH   3   4
ATOM      4  C   UNL     1      10.222  66.506   4.331  1.00  0.00     0.000 C 
BRANCH   4   5
ATOM      5  C   UNL     1      10.844  65.888   3.070  1.00  0.00     0.006 C 
BRANCH   5   6
ATOM      6  C   UNL     1      11.036  66.946   1.979  1.00  0.00     0.053 C 
BRANCH   6   7
ATOM      7  C   UNL     1      11.986  68.006   2.438  1.00  0.00     0.041 C 
ATOM      8  O   UNL     1      11.631  69.214   2.445  1.00  0.00    -0.550 OA
ATOM      9  O   UNL     1      13.279  67.667   2.812  1.00  0.00    -0.550 OA
ENDBRANCH   6   7
ENDBRANCH   5   6
ENDBRANCH   4   5
ENDBRANCH   3   4
ENDBRANCH   2   3
ENDBRANCH   1   2
BRANCH   1  10
ATOM     10  C   UNL     1      13.519  64.106   7.214  1.00  0.00     0.000 C 
BRANCH  10  11
ATOM     11  C   UNL     1      12.894  62.872   6.539  1.00  0.00    -0.000 C 
BRANCH  11  12
ATOM     12  C   UNL     1      11.953  62.091   7.469  1.00  0.00    -0.000 C 
BRANCH  12  13
ATOM     13  C   UNL     1      11.428  62.989   8.599  1.00  0.00    -0.000 C 
BRANCH  13  14
ATOM     14  C   UNL     1       9.917  63.263   8.494  1.00  0.00    -0.000 C 
BRANCH  14  15
ATOM     15  C   UNL     1       9.507  64.724   8.744  1.00  0.00    -0.003 C 
ATOM     16  C   UNL     1      10.651  65.584   9.279  1.00  0.00     0.004 C 
ENDBRANCH  14  15
ENDBRANCH  13  14
ENDBRANCH  12  13
ENDBRANCH  11  12
ENDBRANCH  10  11
ENDBRANCH   1  10
TORSDOF 12
ENDMDL
MODEL 9
REMARK VINA RESULT:    -3.589      2.958      4.111
REMARK INTER + INTRA:          -7.454
REMARK INTER:                  -5.760
REMARK INTRA:                  -1.694
REMARK UNBOUND:                -1.347
REMARK SMILES CCCCCCCCCCCCCC(=O)[O-]
REMARK SMILES IDX 8 1 9 2 10 3 11 4 12 5 13 6 14 7 15 8 16 9 7 10 6 11 5 12
REMARK SMILES IDX 4 13 3 14 2 15 1 16
REMARK H PARENT
REMARK Flexibility Score: inf
ROOT
ATOM      1  C   UNL     1      12.660  62.526   7.012  1.00  0.00     0.000 C 
ENDROOT
BRANCH   1   2
ATOM      2  C   UNL     1      11.563  62.021   7.963  1.00  0.00     0.000 C 
BRANCH   2   3
ATOM      3  C   UNL     1      11.086  63.146   8.894  1.00  0.00     0.000 C 
BRANCH   3   4
ATOM      4  C   UNL     1       9.783  63.802   8.410  1.00  0.00     0.000 C 
BRANCH   4   5
ATOM      5  C   UNL     1       9.875  65.334   8.360  1.00  0.00     0.006 C 
BRANCH   5   6
ATOM      6  C   UNL     1      10.928  65.853   9.345  1.00  0.00     0.053 C 
BRANCH   6   7
ATOM      7  C   UNL     1      11.499  67.150   8.867  1.00  0.00     0.041 C 
ATOM      8  O   UNL     1      10.850  67.870   8.064  1.00  0.00    -0.550 OA
ATOM      9  O   UNL     1      12.768  67.542   9.272  1.00  0.00    -0.550 OA
ENDBRANCH   6   7
ENDBRANCH   5   6
ENDBRANCH   4   5
ENDBRANCH   3   4
ENDBRANCH   2   3
ENDBRANCH   1   2
BRANCH   1  10
ATOM     10  C   UNL     1      13.386  63.776   7.545  1.00  0.00     0.000 C 
BRANCH  10  11
ATOM     11  C   UNL     1      13.424  64.969   6.574  1.00  0.00    -0.000 C 
BRANCH  11  12
ATOM     12  C   UNL     1      12.512  64.778   5.352  1.00  0.00    -0.000 C 
BRANCH  12  13
ATOM     13  C   UNL     1      11.642  66.023   5.117  1.00  0.00    -0.000 C 
BRANCH  13  14
ATOM     14  C   UNL     1      10.822  65.943   3.817  1.00  0.00    -0.000 C 
BRANCH  14  15
ATOM     15  C   UNL     1      11.236  66.948   2.729  1.00  0.00    -0.003 C 
ATOM     16  C   UNL     1      12.564  66.594   2.062  1.00  0.00     0.004 C 
ENDBRANCH  14  15
ENDBRANCH  13  14
ENDBRANCH  12  13
ENDBRANCH  11  12
ENDBRANCH  10  11
ENDBRANCH   1  10
TORSDOF 12
ENDMDL
