MODEL 1
REMARK VINA RESULT:    -7.941      0.000      0.000
REMARK INTER + INTRA:         -10.066
REMARK INTER:                  -9.798
REMARK INTRA:                  -0.268
REMARK UNBOUND:                -0.268
REMARK SMILES Oc1cc(O)c2cc(O)c(-c3cc(O)c(O)c(O)c3)[o+]c2c1
REMARK SMILES IDX 10 1 20 2 21 3 22 4 2 5 3 6 4 7 6 8 7 9 8 10 11 11 12 12
REMARK SMILES IDX 13 13 19 14 15 15 17 16 14 17 16 19 18 21 9 23 1 25 5 27
REMARK H PARENT 14 18 16 20 18 22 9 24 1 26 5 28
REMARK Flexibility Score: inf
ROOT
ATOM      1  C   UNL     1      81.045 -26.716  84.956  1.00  0.00     0.402 A 
ATOM      2  O   UNL     1      80.411 -25.702  85.543  1.00  0.00    -0.202 OA
ATOM      3  C   UNL     1      80.936 -24.997  86.541  1.00  0.00     0.368 A 
ATOM      4  C   UNL     1      80.204 -23.949  87.107  1.00  0.00     0.162 A 
ATOM      5  C   UNL     1      80.743 -23.200  88.161  1.00  0.00     0.128 A 
ATOM      6  C   UNL     1      82.019 -23.502  88.648  1.00  0.00     0.093 A 
ATOM      7  C   UNL     1      82.766 -24.549  88.089  1.00  0.00     0.136 A 
ATOM      8  C   UNL     1      82.224 -25.302  87.030  1.00  0.00     0.125 A 
ATOM      9  C   UNL     1      82.927 -26.352  86.429  1.00  0.00     0.078 A 
ATOM     10  C   UNL     1      82.345 -27.065  85.376  1.00  0.00     0.223 A 
ENDROOT
BRANCH   1  11
ATOM     11  C   UNL     1      80.354 -27.433  83.860  1.00  0.00     0.091 A 
ATOM     12  C   UNL     1      79.975 -28.780  83.990  1.00  0.00     0.068 A 
ATOM     13  C   UNL     1      79.303 -29.434  82.953  1.00  0.00     0.162 A 
ATOM     14  C   UNL     1      80.020 -26.741  82.686  1.00  0.00     0.068 A 
ATOM     15  C   UNL     1      78.990 -28.742  81.771  1.00  0.00     0.200 A 
ATOM     16  C   UNL     1      79.348 -27.389  81.641  1.00  0.00     0.162 A 
BRANCH  13  17
ATOM     17  O   UNL     1      78.948 -30.773  83.119  1.00  0.00    -0.504 OA
ATOM     18  H   UNL     1      78.985 -31.233  84.022  1.00  0.00     0.293 HD
ENDBRANCH  13  17
BRANCH  15  19
ATOM     19  O   UNL     1      78.323 -29.405  80.739  1.00  0.00    -0.502 OA
ATOM     20  H   UNL     1      77.328 -29.301  80.586  1.00  0.00     0.293 HD
ENDBRANCH  15  19
BRANCH  16  21
ATOM     21  O   UNL     1      79.035 -26.694  80.474  1.00  0.00    -0.504 OA
ATOM     22  H   UNL     1      79.284 -27.051  79.559  1.00  0.00     0.293 HD
ENDBRANCH  16  21
ENDBRANCH   1  11
BRANCH  10  23
ATOM     23  O   UNL     1      83.060 -28.079  84.740  1.00  0.00    -0.500 OA
ATOM     24  H   UNL     1      84.016 -27.944  84.433  1.00  0.00     0.294 HD
ENDBRANCH  10  23
BRANCH   5  25
ATOM     25  O   UNL     1      80.020 -22.155  88.731  1.00  0.00    -0.507 OA
ATOM     26  H   UNL     1      79.244 -22.328  89.359  1.00  0.00     0.293 HD
ENDBRANCH   5  25
BRANCH   7  27
ATOM     27  O   UNL     1      84.039 -24.839  88.584  1.00  0.00    -0.507 OA
ATOM     28  H   UNL     1      84.209 -25.647  89.170  1.00  0.00     0.293 HD
ENDBRANCH   7  27
TORSDOF 7
ENDMDL
MODEL 2
REMARK VINA RESULT:    -7.886      0.830      1.846
REMARK INTER + INTRA:          -9.997
REMARK INTER:                  -9.635
REMARK INTRA:                  -0.362
REMARK UNBOUND:                -0.268
REMARK SMILES Oc1cc(O)c2cc(O)c(-c3cc(O)c(O)c(O)c3)[o+]c2c1
REMARK SMILES IDX 10 1 20 2 21 3 22 4 2 5 3 6 4 7 6 8 7 9 8 10 11 11 12 12
REMARK SMILES IDX 13 13 19 14 15 15 17 16 14 17 16 19 18 21 9 23 1 25 5 27
REMARK H PARENT 14 18 16 20 18 22 9 24 1 26 5 28
REMARK Flexibility Score: inf
ROOT
ATOM      1  C   UNL     1      80.438 -26.755  84.656  1.00  0.00     0.402 A 
ATOM      2  O   UNL     1      79.871 -25.731  85.292  1.00  0.00    -0.202 OA
ATOM      3  C   UNL     1      80.464 -25.074  86.285  1.00  0.00     0.368 A 
ATOM      4  C   UNL     1      79.800 -24.011  86.905  1.00  0.00     0.162 A 
ATOM      5  C   UNL     1      80.412 -23.312  87.954  1.00  0.00     0.128 A 
ATOM      6  C   UNL     1      81.692 -23.681  88.383  1.00  0.00     0.093 A 
ATOM      7  C   UNL     1      82.370 -24.744  87.770  1.00  0.00     0.136 A 
ATOM      8  C   UNL     1      81.756 -25.446  86.715  1.00  0.00     0.125 A 
ATOM      9  C   UNL     1      82.389 -26.508  86.062  1.00  0.00     0.078 A 
ATOM     10  C   UNL     1      81.737 -27.169  85.016  1.00  0.00     0.223 A 
ENDROOT
BRANCH   1  11
ATOM     11  C   UNL     1      79.675 -27.414  83.572  1.00  0.00     0.091 A 
ATOM     12  C   UNL     1      79.892 -27.091  82.222  1.00  0.00     0.068 A 
ATOM     13  C   UNL     1      79.178 -27.739  81.210  1.00  0.00     0.162 A 
ATOM     14  C   UNL     1      78.754 -28.423  83.892  1.00  0.00     0.068 A 
ATOM     15  C   UNL     1      78.241 -28.734  81.537  1.00  0.00     0.200 A 
ATOM     16  C   UNL     1      78.033 -29.078  82.883  1.00  0.00     0.162 A 
BRANCH  13  17
ATOM     17  O   UNL     1      79.420 -27.386  79.882  1.00  0.00    -0.504 OA
ATOM     18  H   UNL     1      79.541 -28.079  79.153  1.00  0.00     0.293 HD
ENDBRANCH  13  17
BRANCH  15  19
ATOM     19  O   UNL     1      77.530 -29.373  80.520  1.00  0.00    -0.502 OA
ATOM     20  H   UNL     1      76.566 -29.145  80.311  1.00  0.00     0.293 HD
ENDBRANCH  15  19
BRANCH  16  21
ATOM     21  O   UNL     1      77.110 -30.068  83.216  1.00  0.00    -0.504 OA
ATOM     22  H   UNL     1      77.387 -31.037  83.330  1.00  0.00     0.293 HD
ENDBRANCH  16  21
ENDBRANCH   1  11
BRANCH  10  23
ATOM     23  O   UNL     1      82.381 -28.196  84.328  1.00  0.00    -0.500 OA
ATOM     24  H   UNL     1      82.061 -28.509  83.419  1.00  0.00     0.294 HD
ENDBRANCH  10  23
BRANCH   5  25
ATOM     25  O   UNL     1      79.757 -22.253  88.577  1.00  0.00    -0.507 OA
ATOM     26  H   UNL     1      80.031 -21.291  88.414  1.00  0.00     0.293 HD
ENDBRANCH   5  25
BRANCH   7  27
ATOM     27  O   UNL     1      83.647 -25.099  88.206  1.00  0.00    -0.507 OA
ATOM     28  H   UNL     1      84.249 -25.699  87.654  1.00  0.00     0.293 HD
ENDBRANCH   7  27
TORSDOF 7
ENDMDL
MODEL 3
REMARK VINA RESULT:    -7.872      3.532      5.028
REMARK INTER + INTRA:          -9.981
REMARK INTER:                  -9.666
REMARK INTRA:                  -0.315
REMARK UNBOUND:                -0.268
REMARK SMILES Oc1cc(O)c2cc(O)c(-c3cc(O)c(O)c(O)c3)[o+]c2c1
REMARK SMILES IDX 10 1 20 2 21 3 22 4 2 5 3 6 4 7 6 8 7 9 8 10 11 11 12 12
REMARK SMILES IDX 13 13 19 14 15 15 17 16 14 17 16 19 18 21 9 23 1 25 5 27
REMARK H PARENT 14 18 16 20 18 22 9 24 1 26 5 28
REMARK Flexibility Score: inf
ROOT
ATOM      1  C   UNL     1      79.003 -25.799  86.310  1.00  0.00     0.402 A 
ATOM      2  O   UNL     1      79.749 -26.789  85.823  1.00  0.00    -0.202 OA
ATOM      3  C   UNL     1      81.074 -26.822  85.933  1.00  0.00     0.368 A 
ATOM      4  C   UNL     1      81.787 -27.895  85.391  1.00  0.00     0.162 A 
ATOM      5  C   UNL     1      83.183 -27.941  85.497  1.00  0.00     0.128 A 
ATOM      6  C   UNL     1      83.866 -26.908  86.148  1.00  0.00     0.093 A 
ATOM      7  C   UNL     1      83.165 -25.826  86.699  1.00  0.00     0.136 A 
ATOM      8  C   UNL     1      81.762 -25.780  86.592  1.00  0.00     0.125 A 
ATOM      9  C   UNL     1      81.010 -24.729  87.129  1.00  0.00     0.078 A 
ATOM     10  C   UNL     1      79.618 -24.734  87.001  1.00  0.00     0.223 A 
ENDROOT
BRANCH   1  11
ATOM     11  C   UNL     1      77.536 -25.868  86.117  1.00  0.00     0.091 A 
ATOM     12  C   UNL     1      76.672 -26.193  87.176  1.00  0.00     0.068 A 
ATOM     13  C   UNL     1      75.288 -26.232  86.981  1.00  0.00     0.162 A 
ATOM     14  C   UNL     1      76.990 -25.548  84.865  1.00  0.00     0.068 A 
ATOM     15  C   UNL     1      74.748 -25.932  85.719  1.00  0.00     0.200 A 
ATOM     16  C   UNL     1      75.604 -25.585  84.660  1.00  0.00     0.162 A 
BRANCH  13  17
ATOM     17  O   UNL     1      74.465 -26.565  88.057  1.00  0.00    -0.504 OA
ATOM     18  H   UNL     1      74.571 -27.433  88.569  1.00  0.00     0.293 HD
ENDBRANCH  13  17
BRANCH  15  19
ATOM     19  O   UNL     1      73.365 -25.978  85.533  1.00  0.00    -0.502 OA
ATOM     20  H   UNL     1      72.724 -25.464  86.125  1.00  0.00     0.293 HD
ENDBRANCH  15  19
BRANCH  16  21
ATOM     21  O   UNL     1      75.075 -25.279  83.407  1.00  0.00    -0.504 OA
ATOM     22  H   UNL     1      75.260 -24.392  82.954  1.00  0.00     0.293 HD
ENDBRANCH  16  21
ENDBRANCH   1  11
BRANCH  10  23
ATOM     23  O   UNL     1      78.858 -23.716  87.577  1.00  0.00    -0.500 OA
ATOM     24  H   UNL     1      79.289 -22.962  88.100  1.00  0.00     0.294 HD
ENDBRANCH  10  23
BRANCH   5  25
ATOM     25  O   UNL     1      83.900 -29.007  84.959  1.00  0.00    -0.507 OA
ATOM     26  H   UNL     1      84.622 -29.482  85.490  1.00  0.00     0.293 HD
ENDBRANCH   5  25
BRANCH   7  27
ATOM     27  O   UNL     1      83.858 -24.803  87.348  1.00  0.00    -0.507 OA
ATOM     28  H   UNL     1      84.263 -24.937  88.267  1.00  0.00     0.293 HD
ENDBRANCH   7  27
TORSDOF 7
ENDMDL
MODEL 4
REMARK VINA RESULT:    -7.839      3.739      4.554
REMARK INTER + INTRA:          -9.941
REMARK INTER:                  -9.902
REMARK INTRA:                  -0.039
REMARK UNBOUND:                -0.268
REMARK SMILES Oc1cc(O)c2cc(O)c(-c3cc(O)c(O)c(O)c3)[o+]c2c1
REMARK SMILES IDX 10 1 20 2 21 3 22 4 2 5 3 6 4 7 6 8 7 9 8 10 11 11 12 12
REMARK SMILES IDX 13 13 19 14 15 15 17 16 14 17 16 19 18 21 9 23 1 25 5 27
REMARK H PARENT 14 18 16 20 18 22 9 24 1 26 5 28
REMARK Flexibility Score: inf
ROOT
ATOM      1  C   UNL     1      78.605 -26.377  85.798  1.00  0.00     0.402 A 
ATOM      2  O   UNL     1      79.298 -25.654  86.676  1.00  0.00    -0.202 OA
ATOM      3  C   UNL     1      80.617 -25.750  86.817  1.00  0.00     0.368 A 
ATOM      4  C   UNL     1      81.272 -24.959  87.765  1.00  0.00     0.162 A 
ATOM      5  C   UNL     1      82.660 -25.053  87.927  1.00  0.00     0.128 A 
ATOM      6  C   UNL     1      83.394 -25.944  87.136  1.00  0.00     0.093 A 
ATOM      7  C   UNL     1      82.752 -26.743  86.179  1.00  0.00     0.136 A 
ATOM      8  C   UNL     1      81.356 -26.648  86.017  1.00  0.00     0.125 A 
ATOM      9  C   UNL     1      80.664 -27.415  85.074  1.00  0.00     0.078 A 
ATOM     10  C   UNL     1      79.279 -27.279  84.948  1.00  0.00     0.223 A 
ENDROOT
BRANCH   1  11
ATOM     11  C   UNL     1      77.138 -26.188  85.739  1.00  0.00     0.091 A 
ATOM     12  C   UNL     1      76.348 -26.215  86.901  1.00  0.00     0.068 A 
ATOM     13  C   UNL     1      74.967 -26.012  86.829  1.00  0.00     0.162 A 
ATOM     14  C   UNL     1      76.526 -25.920  84.505  1.00  0.00     0.068 A 
ATOM     15  C   UNL     1      74.356 -25.766  85.588  1.00  0.00     0.200 A 
ATOM     16  C   UNL     1      75.142 -25.717  84.424  1.00  0.00     0.162 A 
BRANCH  13  17
ATOM     17  O   UNL     1      74.217 -26.052  88.005  1.00  0.00    -0.504 OA
ATOM     18  H   UNL     1      73.225 -26.260  88.006  1.00  0.00     0.293 HD
ENDBRANCH  13  17
BRANCH  15  19
ATOM     19  O   UNL     1      72.976 -25.569  85.525  1.00  0.00    -0.502 OA
ATOM     20  H   UNL     1      72.462 -25.109  86.267  1.00  0.00     0.293 HD
ENDBRANCH  15  19
BRANCH  16  21
ATOM     21  O   UNL     1      74.544 -25.466  83.189  1.00  0.00    -0.504 OA
ATOM     22  H   UNL     1      74.578 -24.550  82.758  1.00  0.00     0.293 HD
ENDBRANCH  16  21
ENDBRANCH   1  11
BRANCH  10  23
ATOM     23  O   UNL     1      78.589 -28.003  83.976  1.00  0.00    -0.500 OA
ATOM     24  H   UNL     1      77.576 -28.031  83.953  1.00  0.00     0.294 HD
ENDBRANCH  10  23
BRANCH   5  25
ATOM     25  O   UNL     1      83.319 -24.269  88.869  1.00  0.00    -0.507 OA
ATOM     26  H   UNL     1      84.021 -24.659  89.488  1.00  0.00     0.293 HD
ENDBRANCH   5  25
BRANCH   7  27
ATOM     27  O   UNL     1      83.496 -27.626  85.395  1.00  0.00    -0.507 OA
ATOM     28  H   UNL     1      84.052 -27.301  84.612  1.00  0.00     0.293 HD
ENDBRANCH   7  27
TORSDOF 7
ENDMDL
MODEL 5
REMARK VINA RESULT:    -7.768      3.687      4.843
REMARK INTER + INTRA:          -9.853
REMARK INTER:                  -9.671
REMARK INTRA:                  -0.182
REMARK UNBOUND:                -0.268
REMARK SMILES Oc1cc(O)c2cc(O)c(-c3cc(O)c(O)c(O)c3)[o+]c2c1
REMARK SMILES IDX 10 1 20 2 21 3 22 4 2 5 3 6 4 7 6 8 7 9 8 10 11 11 12 12
REMARK SMILES IDX 13 13 19 14 15 15 17 16 14 17 16 19 18 21 9 23 1 25 5 27
REMARK H PARENT 14 18 16 20 18 22 9 24 1 26 5 28
REMARK Flexibility Score: inf
ROOT
ATOM      1  C   UNL     1      78.629 -26.438  85.502  1.00  0.00     0.402 A 
ATOM      2  O   UNL     1      79.411 -25.627  86.212  1.00  0.00    -0.202 OA
ATOM      3  C   UNL     1      80.733 -25.763  86.277  1.00  0.00     0.368 A 
ATOM      4  C   UNL     1      81.484 -24.872  87.049  1.00  0.00     0.162 A 
ATOM      5  C   UNL     1      82.876 -25.007  87.130  1.00  0.00     0.128 A 
ATOM      6  C   UNL     1      83.517 -26.039  86.434  1.00  0.00     0.093 A 
ATOM      7  C   UNL     1      82.777 -26.939  85.654  1.00  0.00     0.136 A 
ATOM      8  C   UNL     1      81.378 -26.803  85.573  1.00  0.00     0.125 A 
ATOM      9  C   UNL     1      80.590 -27.667  84.805  1.00  0.00     0.078 A 
ATOM     10  C   UNL     1      79.205 -27.485  84.754  1.00  0.00     0.223 A 
ENDROOT
BRANCH   1  11
ATOM     11  C   UNL     1      77.169 -26.190  85.514  1.00  0.00     0.091 A 
ATOM     12  C   UNL     1      76.467 -25.890  84.334  1.00  0.00     0.068 A 
ATOM     13  C   UNL     1      75.085 -25.682  84.362  1.00  0.00     0.162 A 
ATOM     14  C   UNL     1      76.460 -26.313  86.718  1.00  0.00     0.068 A 
ATOM     15  C   UNL     1      74.382 -25.784  85.575  1.00  0.00     0.200 A 
ATOM     16  C   UNL     1      75.074 -26.104  86.754  1.00  0.00     0.162 A 
BRANCH  13  17
ATOM     17  O   UNL     1      74.425 -25.380  83.170  1.00  0.00    -0.504 OA
ATOM     18  H   UNL     1      74.188 -26.093  82.489  1.00  0.00     0.293 HD
ENDBRANCH  13  17
BRANCH  15  19
ATOM     19  O   UNL     1      73.003 -25.570  85.593  1.00  0.00    -0.502 OA
ATOM     20  H   UNL     1      72.602 -24.651  85.734  1.00  0.00     0.293 HD
ENDBRANCH  15  19
BRANCH  16  21
ATOM     21  O   UNL     1      74.383 -26.214  87.961  1.00  0.00    -0.504 OA
ATOM     22  H   UNL     1      73.385 -26.050  88.018  1.00  0.00     0.293 HD
ENDBRANCH  16  21
ENDBRANCH   1  11
BRANCH  10  23
ATOM     23  O   UNL     1      78.420 -28.312  83.950  1.00  0.00    -0.500 OA
ATOM     24  H   UNL     1      78.389 -28.200  82.943  1.00  0.00     0.294 HD
ENDBRANCH  10  23
BRANCH   5  25
ATOM     25  O   UNL     1      83.631 -24.124  87.897  1.00  0.00    -0.507 OA
ATOM     26  H   UNL     1      84.254 -24.453  88.625  1.00  0.00     0.293 HD
ENDBRANCH   5  25
BRANCH   7  27
ATOM     27  O   UNL     1      83.429 -27.961  84.963  1.00  0.00    -0.507 OA
ATOM     28  H   UNL     1      83.643 -27.882  83.976  1.00  0.00     0.293 HD
ENDBRANCH   7  27
TORSDOF 7
ENDMDL
MODEL 6
REMARK VINA RESULT:    -7.728      1.414      2.834
REMARK INTER + INTRA:          -9.804
REMARK INTER:                  -9.550
REMARK INTRA:                  -0.254
REMARK UNBOUND:                -0.268
REMARK SMILES Oc1cc(O)c2cc(O)c(-c3cc(O)c(O)c(O)c3)[o+]c2c1
REMARK SMILES IDX 10 1 20 2 21 3 22 4 2 5 3 6 4 7 6 8 7 9 8 10 11 11 12 12
REMARK SMILES IDX 13 13 19 14 15 15 17 16 14 17 16 19 18 21 9 23 1 25 5 27
REMARK H PARENT 14 18 16 20 18 22 9 24 1 26 5 28
REMARK Flexibility Score: inf
ROOT
ATOM      1  C   UNL     1      79.382 -26.047  84.828  1.00  0.00     0.402 A 
ATOM      2  O   UNL     1      80.612 -26.160  85.326  1.00  0.00    -0.202 OA
ATOM      3  C   UNL     1      81.065 -25.407  86.324  1.00  0.00     0.368 A 
ATOM      4  C   UNL     1      82.372 -25.585  86.788  1.00  0.00     0.162 A 
ATOM      5  C   UNL     1      82.863 -24.796  87.836  1.00  0.00     0.128 A 
ATOM      6  C   UNL     1      82.041 -23.827  88.422  1.00  0.00     0.093 A 
ATOM      7  C   UNL     1      80.727 -23.638  87.968  1.00  0.00     0.136 A 
ATOM      8  C   UNL     1      80.234 -24.431  86.915  1.00  0.00     0.125 A 
ATOM      9  C   UNL     1      78.931 -24.292  86.427  1.00  0.00     0.078 A 
ATOM     10  C   UNL     1      78.488 -25.108  85.382  1.00  0.00     0.223 A 
ENDROOT
BRANCH   1  11
ATOM     11  C   UNL     1      78.995 -26.935  83.708  1.00  0.00     0.091 A 
ATOM     12  C   UNL     1      78.026 -27.939  83.871  1.00  0.00     0.068 A 
ATOM     13  C   UNL     1      77.657 -28.755  82.797  1.00  0.00     0.162 A 
ATOM     14  C   UNL     1      79.566 -26.737  82.442  1.00  0.00     0.068 A 
ATOM     15  C   UNL     1      78.248 -28.566  81.536  1.00  0.00     0.200 A 
ATOM     16  C   UNL     1      79.202 -27.550  81.360  1.00  0.00     0.162 A 
BRANCH  13  17
ATOM     17  O   UNL     1      76.695 -29.744  83.001  1.00  0.00    -0.504 OA
ATOM     18  H   UNL     1      76.945 -30.710  83.180  1.00  0.00     0.293 HD
ENDBRANCH  13  17
BRANCH  15  19
ATOM     19  O   UNL     1      77.876 -29.388  80.471  1.00  0.00    -0.502 OA
ATOM     20  H   UNL     1      77.703 -29.022  79.543  1.00  0.00     0.293 HD
ENDBRANCH  15  19
BRANCH  16  21
ATOM     21  O   UNL     1      79.788 -27.352  80.110  1.00  0.00    -0.504 OA
ATOM     22  H   UNL     1      80.206 -26.466  79.853  1.00  0.00     0.293 HD
ENDBRANCH  16  21
ENDBRANCH   1  11
BRANCH  10  23
ATOM     23  O   UNL     1      77.174 -25.009  84.926  1.00  0.00    -0.500 OA
ATOM     24  H   UNL     1      76.606 -25.832  84.759  1.00  0.00     0.294 HD
ENDBRANCH  10  23
BRANCH   5  25
ATOM     25  O   UNL     1      84.163 -24.967  88.303  1.00  0.00    -0.507 OA
ATOM     26  H   UNL     1      84.755 -24.175  88.528  1.00  0.00     0.293 HD
ENDBRANCH   5  25
BRANCH   7  27
ATOM     27  O   UNL     1      79.918 -22.669  88.563  1.00  0.00    -0.507 OA
ATOM     28  H   UNL     1      79.158 -22.921  89.184  1.00  0.00     0.293 HD
ENDBRANCH   7  27
TORSDOF 7
ENDMDL
MODEL 7
REMARK VINA RESULT:    -7.716      1.592      3.237
REMARK INTER + INTRA:          -9.788
REMARK INTER:                  -9.760
REMARK INTRA:                  -0.028
REMARK UNBOUND:                -0.268
REMARK SMILES Oc1cc(O)c2cc(O)c(-c3cc(O)c(O)c(O)c3)[o+]c2c1
REMARK SMILES IDX 10 1 20 2 21 3 22 4 2 5 3 6 4 7 6 8 7 9 8 10 11 11 12 12
REMARK SMILES IDX 13 13 19 14 15 15 17 16 14 17 16 19 18 21 9 23 1 25 5 27
REMARK H PARENT 14 18 16 20 18 22 9 24 1 26 5 28
REMARK Flexibility Score: inf
ROOT
ATOM      1  C   UNL     1      79.428 -26.315  84.378  1.00  0.00     0.402 A 
ATOM      2  O   UNL     1      80.723 -26.324  84.691  1.00  0.00    -0.202 OA
ATOM      3  C   UNL     1      81.242 -25.579  85.662  1.00  0.00     0.368 A 
ATOM      4  C   UNL     1      82.614 -25.643  85.925  1.00  0.00     0.162 A 
ATOM      5  C   UNL     1      83.174 -24.860  86.943  1.00  0.00     0.128 A 
ATOM      6  C   UNL     1      82.358 -24.011  87.699  1.00  0.00     0.093 A 
ATOM      7  C   UNL     1      80.980 -23.938  87.447  1.00  0.00     0.136 A 
ATOM      8  C   UNL     1      80.416 -24.724  86.424  1.00  0.00     0.125 A 
ATOM      9  C   UNL     1      79.049 -24.698  86.135  1.00  0.00     0.078 A 
ATOM     10  C   UNL     1      78.538 -25.503  85.112  1.00  0.00     0.223 A 
ENDROOT
BRANCH   1  11
ATOM     11  C   UNL     1      78.969 -27.182  83.270  1.00  0.00     0.091 A 
ATOM     12  C   UNL     1      79.625 -27.192  82.027  1.00  0.00     0.068 A 
ATOM     13  C   UNL     1      79.191 -28.035  80.999  1.00  0.00     0.162 A 
ATOM     14  C   UNL     1      77.891 -28.055  83.479  1.00  0.00     0.068 A 
ATOM     15  C   UNL     1      78.096 -28.892  81.207  1.00  0.00     0.200 A 
ATOM     16  C   UNL     1      77.448 -28.902  82.453  1.00  0.00     0.162 A 
BRANCH  13  17
ATOM     17  O   UNL     1      79.866 -28.011  79.778  1.00  0.00    -0.504 OA
ATOM     18  H   UNL     1      80.821 -28.337  79.683  1.00  0.00     0.293 HD
ENDBRANCH  13  17
BRANCH  15  19
ATOM     19  O   UNL     1      77.668 -29.726  80.173  1.00  0.00    -0.502 OA
ATOM     20  H   UNL     1      76.783 -30.217  80.208  1.00  0.00     0.293 HD
ENDBRANCH  15  19
BRANCH  16  21
ATOM     21  O   UNL     1      76.366 -29.754  82.670  1.00  0.00    -0.504 OA
ATOM     22  H   UNL     1      75.713 -29.984  81.929  1.00  0.00     0.293 HD
ENDBRANCH  16  21
ENDBRANCH   1  11
BRANCH  10  23
ATOM     23  O   UNL     1      77.168 -25.519  84.851  1.00  0.00    -0.500 OA
ATOM     24  H   UNL     1      76.487 -25.617  85.595  1.00  0.00     0.294 HD
ENDBRANCH  10  23
BRANCH   5  25
ATOM     25  O   UNL     1      84.539 -24.918  87.211  1.00  0.00    -0.507 OA
ATOM     26  H   UNL     1      84.968 -25.748  87.602  1.00  0.00     0.293 HD
ENDBRANCH   5  25
BRANCH   7  27
ATOM     27  O   UNL     1      80.177 -23.089  88.210  1.00  0.00    -0.507 OA
ATOM     28  H   UNL     1      79.896 -22.177  87.870  1.00  0.00     0.293 HD
ENDBRANCH   7  27
TORSDOF 7
ENDMDL
MODEL 8
REMARK VINA RESULT:    -7.248      1.830      7.466
REMARK INTER + INTRA:          -9.210
REMARK INTER:                  -9.122
REMARK INTRA:                  -0.088
REMARK UNBOUND:                -0.268
REMARK SMILES Oc1cc(O)c2cc(O)c(-c3cc(O)c(O)c(O)c3)[o+]c2c1
REMARK SMILES IDX 10 1 20 2 21 3 22 4 2 5 3 6 4 7 6 8 7 9 8 10 11 11 12 12
REMARK SMILES IDX 13 13 19 14 15 15 17 16 14 17 16 19 18 21 9 23 1 25 5 27
REMARK H PARENT 14 18 16 20 18 22 9 24 1 26 5 28
REMARK Flexibility Score: inf
ROOT
ATOM      1  C   UNL     1      79.200 -26.308  84.991  1.00  0.00     0.402 A 
ATOM      2  O   UNL     1      79.786 -26.500  83.810  1.00  0.00    -0.202 OA
ATOM      3  C   UNL     1      79.219 -27.184  82.820  1.00  0.00     0.368 A 
ATOM      4  C   UNL     1      79.902 -27.345  81.611  1.00  0.00     0.162 A 
ATOM      5  C   UNL     1      79.318 -28.066  80.561  1.00  0.00     0.128 A 
ATOM      6  C   UNL     1      78.045 -28.625  80.724  1.00  0.00     0.093 A 
ATOM      7  C   UNL     1      77.347 -28.470  81.930  1.00  0.00     0.136 A 
ATOM      8  C   UNL     1      77.934 -27.746  82.986  1.00  0.00     0.125 A 
ATOM      9  C   UNL     1      77.282 -27.553  84.208  1.00  0.00     0.078 A 
ATOM     10  C   UNL     1      77.907 -26.821  85.222  1.00  0.00     0.223 A 
ENDROOT
BRANCH   1  11
ATOM     11  C   UNL     1      79.935 -25.537  86.020  1.00  0.00     0.091 A 
ATOM     12  C   UNL     1      79.358 -24.424  86.653  1.00  0.00     0.068 A 
ATOM     13  C   UNL     1      80.058 -23.721  87.639  1.00  0.00     0.162 A 
ATOM     14  C   UNL     1      81.214 -25.958  86.413  1.00  0.00     0.068 A 
ATOM     15  C   UNL     1      81.349 -24.134  88.013  1.00  0.00     0.200 A 
ATOM     16  C   UNL     1      81.924 -25.260  87.399  1.00  0.00     0.162 A 
BRANCH  13  17
ATOM     17  O   UNL     1      79.453 -22.618  88.240  1.00  0.00    -0.504 OA
ATOM     18  H   UNL     1      79.110 -22.644  89.193  1.00  0.00     0.293 HD
ENDBRANCH  13  17
BRANCH  15  19
ATOM     19  O   UNL     1      82.042 -23.425  88.995  1.00  0.00    -0.502 OA
ATOM     20  H   UNL     1      82.826 -23.824  89.496  1.00  0.00     0.293 HD
ENDBRANCH  15  19
BRANCH  16  21
ATOM     21  O   UNL     1      83.201 -25.680  87.771  1.00  0.00    -0.504 OA
ATOM     22  H   UNL     1      83.699 -26.392  87.249  1.00  0.00     0.293 HD
ENDBRANCH  16  21
ENDBRANCH   1  11
BRANCH  10  23
ATOM     23  O   UNL     1      77.242 -26.581  86.424  1.00  0.00    -0.500 OA
ATOM     24  H   UNL     1      76.268 -26.833  86.552  1.00  0.00     0.294 HD
ENDBRANCH  10  23
BRANCH   5  25
ATOM     25  O   UNL     1      79.991 -28.232  79.354  1.00  0.00    -0.507 OA
ATOM     26  H   UNL     1      79.517 -28.569  78.524  1.00  0.00     0.293 HD
ENDBRANCH   5  25
BRANCH   7  27
ATOM     27  O   UNL     1      76.078 -29.031  82.079  1.00  0.00    -0.507 OA
ATOM     28  H   UNL     1      75.365 -28.588  82.646  1.00  0.00     0.293 HD
ENDBRANCH   7  27
TORSDOF 7
ENDMDL
MODEL 9
REMARK VINA RESULT:    -7.204      3.729      6.169
REMARK INTER + INTRA:          -9.157
REMARK INTER:                  -9.026
REMARK INTRA:                  -0.131
REMARK UNBOUND:                -0.268
REMARK SMILES Oc1cc(O)c2cc(O)c(-c3cc(O)c(O)c(O)c3)[o+]c2c1
REMARK SMILES IDX 10 1 20 2 21 3 22 4 2 5 3 6 4 7 6 8 7 9 8 10 11 11 12 12
REMARK SMILES IDX 13 13 19 14 15 15 17 16 14 17 16 19 18 21 9 23 1 25 5 27
REMARK H PARENT 14 18 16 20 18 22 9 24 1 26 5 28
REMARK Flexibility Score: inf
ROOT
ATOM      1  C   UNL     1      78.861 -26.349  85.187  1.00  0.00     0.402 A 
ATOM      2  O   UNL     1      78.058 -26.272  86.246  1.00  0.00    -0.202 OA
ATOM      3  C   UNL     1      76.735 -26.176  86.151  1.00  0.00     0.368 A 
ATOM      4  C   UNL     1      75.961 -26.095  87.312  1.00  0.00     0.162 A 
ATOM      5  C   UNL     1      74.566 -25.989  87.225  1.00  0.00     0.128 A 
ATOM      6  C   UNL     1      73.947 -25.965  85.970  1.00  0.00     0.093 A 
ATOM      7  C   UNL     1      74.710 -26.047  84.797  1.00  0.00     0.136 A 
ATOM      8  C   UNL     1      76.111 -26.153  84.884  1.00  0.00     0.125 A 
ATOM      9  C   UNL     1      76.922 -26.246  83.748  1.00  0.00     0.078 A 
ATOM     10  C   UNL     1      78.308 -26.355  83.890  1.00  0.00     0.223 A 
ENDROOT
BRANCH   1  11
ATOM     11  C   UNL     1      80.320 -26.444  85.420  1.00  0.00     0.091 A 
ATOM     12  C   UNL     1      81.077 -27.510  84.905  1.00  0.00     0.068 A 
ATOM     13  C   UNL     1      82.458 -27.572  85.116  1.00  0.00     0.162 A 
ATOM     14  C   UNL     1      80.974 -25.420  86.122  1.00  0.00     0.068 A 
ATOM     15  C   UNL     1      83.104 -26.554  85.839  1.00  0.00     0.200 A 
ATOM     16  C   UNL     1      82.358 -25.474  86.339  1.00  0.00     0.162 A 
BRANCH  13  17
ATOM     17  O   UNL     1      83.173 -28.650  84.593  1.00  0.00    -0.504 OA
ATOM     18  H   UNL     1      83.811 -28.545  83.813  1.00  0.00     0.293 HD
ENDBRANCH  13  17
BRANCH  15  19
ATOM     19  O   UNL     1      84.482 -26.626  86.049  1.00  0.00    -0.502 OA
ATOM     20  H   UNL     1      85.150 -26.437  85.312  1.00  0.00     0.293 HD
ENDBRANCH  15  19
BRANCH  16  21
ATOM     21  O   UNL     1      82.993 -24.458  87.052  1.00  0.00    -0.504 OA
ATOM     22  H   UNL     1      82.816 -23.480  86.855  1.00  0.00     0.293 HD
ENDBRANCH  16  21
ENDBRANCH   1  11
BRANCH  10  23
ATOM     23  O   UNL     1      79.118 -26.499  82.763  1.00  0.00    -0.500 OA
ATOM     24  H   UNL     1      80.129 -26.499  82.831  1.00  0.00     0.294 HD
ENDBRANCH  10  23
BRANCH   5  25
ATOM     25  O   UNL     1      73.789 -25.908  88.377  1.00  0.00    -0.507 OA
ATOM     26  H   UNL     1      72.914 -25.396  88.391  1.00  0.00     0.293 HD
ENDBRANCH   5  25
BRANCH   7  27
ATOM     27  O   UNL     1      74.079 -26.023  83.552  1.00  0.00    -0.507 OA
ATOM     28  H   UNL     1      73.085 -26.197  83.457  1.00  0.00     0.293 HD
ENDBRANCH   7  27
TORSDOF 7
ENDMDL
