MODEL 1
REMARK VINA RESULT:    -5.999      0.000      0.000
REMARK INTER + INTRA:          -7.318
REMARK INTER:                  -7.051
REMARK INTRA:                  -0.267
REMARK UNBOUND:                -0.267
REMARK SMILES O=c1cc(-c2ccc(O)c(O)c2)oc2cc(O)cc(O)c12
REMARK SMILES IDX 4 1 3 2 2 3 1 4 21 5 19 6 18 7 16 8 15 9 14 10 13 11 5 12
REMARK SMILES IDX 6 13 7 14 8 15 12 16 10 17 9 18 11 20 20 22 17 24
REMARK H PARENT 9 19 11 21 20 23 17 25
REMARK Flexibility Score: inf
ROOT
ATOM      1  C   UNL     1       4.008 -15.489  11.535  1.00  0.00     0.138 A 
ATOM      2  C   UNL     1       4.606 -16.102  12.644  1.00  0.00     0.100 A 
ATOM      3  C   UNL     1       4.224 -17.394  13.008  1.00  0.00     0.197 A 
ATOM      4  O   UNL     1       4.737 -17.896  14.041  1.00  0.00    -0.289 OA
ATOM      5  C   UNL     1       3.263 -18.088  12.235  1.00  0.00     0.107 A 
ATOM      6  C   UNL     1       2.820 -19.421  12.490  1.00  0.00     0.134 A 
ATOM      7  C   UNL     1       1.791 -19.967  11.712  1.00  0.00     0.093 A 
ATOM      8  C   UNL     1       1.229 -19.250  10.653  1.00  0.00     0.123 A 
ATOM      9  C   UNL     1       1.689 -17.968  10.365  1.00  0.00     0.094 A 
ATOM     10  C   UNL     1       2.690 -17.382  11.143  1.00  0.00     0.146 A 
ATOM     11  O   UNL     1       3.086 -16.149  10.844  1.00  0.00    -0.456 OA
ENDROOT
BRANCH   1  12
ATOM     12  C   UNL     1       4.379 -14.118  11.102  1.00  0.00     0.021 A 
ATOM     13  C   UNL     1       5.570 -13.861  10.395  1.00  0.00     0.016 A 
ATOM     14  C   UNL     1       5.897 -12.558  10.007  1.00  0.00     0.051 A 
ATOM     15  C   UNL     1       5.048 -11.491  10.326  1.00  0.00     0.157 A 
ATOM     16  C   UNL     1       3.538 -13.038  11.427  1.00  0.00     0.062 A 
ATOM     17  C   UNL     1       3.864 -11.733  11.039  1.00  0.00     0.158 A 
BRANCH  15  18
ATOM     18  O   UNL     1       5.377 -10.194   9.936  1.00  0.00    -0.504 OA
ATOM     19  H   UNL     1       4.890  -9.388  10.308  1.00  0.00     0.293 HD
ENDBRANCH  15  18
BRANCH  17  20
ATOM     20  O   UNL     1       2.998 -10.693  11.375  1.00  0.00    -0.504 OA
ATOM     21  H   UNL     1       2.370 -10.276  10.698  1.00  0.00     0.293 HD
ENDBRANCH  17  20
ENDBRANCH   1  12
BRANCH   6  22
ATOM     22  O   UNL     1       3.367 -20.255  13.470  1.00  0.00    -0.507 OA
ATOM     23  H   UNL     1       2.855 -20.654  14.242  1.00  0.00     0.293 HD
ENDBRANCH   6  22
BRANCH   8  24
ATOM     24  O   UNL     1       0.217 -19.808   9.875  1.00  0.00    -0.508 OA
ATOM     25  H   UNL     1      -0.361 -20.565  10.221  1.00  0.00     0.293 HD
ENDBRANCH   8  24
TORSDOF 5
ENDMDL
MODEL 2
REMARK VINA RESULT:    -5.730      0.367      0.367
REMARK INTER + INTRA:          -7.003
REMARK INTER:                  -6.735
REMARK INTRA:                  -0.267
REMARK UNBOUND:                -0.267
REMARK SMILES O=c1cc(-c2ccc(O)c(O)c2)oc2cc(O)cc(O)c12
REMARK SMILES IDX 4 1 3 2 2 3 1 4 21 5 19 6 18 7 16 8 15 9 14 10 13 11 5 12
REMARK SMILES IDX 6 13 7 14 8 15 12 16 10 17 9 18 11 20 20 22 17 24
REMARK H PARENT 9 19 11 21 20 23 17 25
REMARK Flexibility Score: inf
ROOT
ATOM      1  C   UNL     1       3.864 -15.288  11.545  1.00  0.00     0.138 A 
ATOM      2  C   UNL     1       4.564 -15.863  12.615  1.00  0.00     0.100 A 
ATOM      3  C   UNL     1       4.300 -17.182  12.984  1.00  0.00     0.197 A 
ATOM      4  O   UNL     1       4.904 -17.652  13.982  1.00  0.00    -0.289 OA
ATOM      5  C   UNL     1       3.355 -17.942  12.253  1.00  0.00     0.107 A 
ATOM      6  C   UNL     1       3.027 -19.306  12.516  1.00  0.00     0.134 A 
ATOM      7  C   UNL     1       2.003 -19.923  11.787  1.00  0.00     0.093 A 
ATOM      8  C   UNL     1       1.333 -19.243  10.767  1.00  0.00     0.123 A 
ATOM      9  C   UNL     1       1.679 -17.927  10.470  1.00  0.00     0.094 A 
ATOM     10  C   UNL     1       2.673 -17.273  11.201  1.00  0.00     0.146 A 
ATOM     11  O   UNL     1       2.959 -16.012  10.896  1.00  0.00    -0.456 OA
ENDROOT
BRANCH   1  12
ATOM     12  C   UNL     1       4.107 -13.890  11.109  1.00  0.00     0.021 A 
ATOM     13  C   UNL     1       5.240 -13.537  10.349  1.00  0.00     0.016 A 
ATOM     14  C   UNL     1       5.447 -12.211   9.960  1.00  0.00     0.051 A 
ATOM     15  C   UNL     1       4.534 -11.214  10.328  1.00  0.00     0.157 A 
ATOM     16  C   UNL     1       3.203 -12.881  11.484  1.00  0.00     0.062 A 
ATOM     17  C   UNL     1       3.408 -11.552  11.095  1.00  0.00     0.158 A 
BRANCH  15  18
ATOM     18  O   UNL     1       4.744  -9.893   9.937  1.00  0.00    -0.504 OA
ATOM     19  H   UNL     1       5.507  -9.343  10.312  1.00  0.00     0.293 HD
ENDBRANCH  15  18
BRANCH  17  20
ATOM     20  O   UNL     1       2.482 -10.584  11.481  1.00  0.00    -0.504 OA
ATOM     21  H   UNL     1       2.542  -9.624  11.162  1.00  0.00     0.293 HD
ENDBRANCH  17  20
ENDBRANCH   1  12
BRANCH   6  22
ATOM     22  O   UNL     1       3.686 -20.103  13.457  1.00  0.00    -0.507 OA
ATOM     23  H   UNL     1       4.669 -20.046  13.679  1.00  0.00     0.293 HD
ENDBRANCH   6  22
BRANCH   8  24
ATOM     24  O   UNL     1       0.326 -19.870  10.037  1.00  0.00    -0.508 OA
ATOM     25  H   UNL     1       0.504 -20.713   9.504  1.00  0.00     0.293 HD
ENDBRANCH   8  24
TORSDOF 5
ENDMDL
MODEL 3
REMARK VINA RESULT:    -5.278      1.933      7.337
REMARK INTER + INTRA:          -6.471
REMARK INTER:                  -6.205
REMARK INTRA:                  -0.265
REMARK UNBOUND:                -0.267
REMARK SMILES O=c1cc(-c2ccc(O)c(O)c2)oc2cc(O)cc(O)c12
REMARK SMILES IDX 4 1 3 2 2 3 1 4 21 5 19 6 18 7 16 8 15 9 14 10 13 11 5 12
REMARK SMILES IDX 6 13 7 14 8 15 12 16 10 17 9 18 11 20 20 22 17 24
REMARK H PARENT 9 19 11 21 20 23 17 25
REMARK Flexibility Score: inf
ROOT
ATOM      1  C   UNL     1       3.770 -13.523  11.349  1.00  0.00     0.138 A 
ATOM      2  C   UNL     1       4.995 -12.844  11.320  1.00  0.00     0.100 A 
ATOM      3  C   UNL     1       5.012 -11.449  11.311  1.00  0.00     0.197 A 
ATOM      4  O   UNL     1       6.125 -10.869  11.229  1.00  0.00    -0.289 OA
ATOM      5  C   UNL     1       3.794 -10.730  11.368  1.00  0.00     0.107 A 
ATOM      6  C   UNL     1       3.688  -9.307  11.398  1.00  0.00     0.134 A 
ATOM      7  C   UNL     1       2.423  -8.707  11.354  1.00  0.00     0.093 A 
ATOM      8  C   UNL     1       1.259  -9.480  11.339  1.00  0.00     0.123 A 
ATOM      9  C   UNL     1       1.351 -10.869  11.359  1.00  0.00     0.094 A 
ATOM     10  C   UNL     1       2.598 -11.497  11.369  1.00  0.00     0.146 A 
ATOM     11  O   UNL     1       2.639 -12.826  11.370  1.00  0.00    -0.456 OA
ENDROOT
BRANCH   1  12
ATOM     12  C   UNL     1       3.693 -15.006  11.362  1.00  0.00     0.021 A 
ATOM     13  C   UNL     1       3.121 -15.728  10.297  1.00  0.00     0.016 A 
ATOM     14  C   UNL     1       3.056 -17.124  10.342  1.00  0.00     0.051 A 
ATOM     15  C   UNL     1       3.550 -17.821  11.452  1.00  0.00     0.157 A 
ATOM     16  C   UNL     1       4.176 -15.714  12.478  1.00  0.00     0.062 A 
ATOM     17  C   UNL     1       4.112 -17.111  12.525  1.00  0.00     0.158 A 
BRANCH  15  18
ATOM     18  O   UNL     1       3.483 -19.212  11.491  1.00  0.00    -0.504 OA
ATOM     19  H   UNL     1       4.000 -19.749  12.177  1.00  0.00     0.293 HD
ENDBRANCH  15  18
BRANCH  17  20
ATOM     20  O   UNL     1       4.610 -17.774  13.645  1.00  0.00    -0.504 OA
ATOM     21  H   UNL     1       4.085 -17.838  14.510  1.00  0.00     0.293 HD
ENDBRANCH  17  20
ENDBRANCH   1  12
BRANCH   6  22
ATOM     22  O   UNL     1       4.782  -8.442  11.494  1.00  0.00    -0.507 OA
ATOM     23  H   UNL     1       4.813  -7.606  12.059  1.00  0.00     0.293 HD
ENDBRANCH   6  22
BRANCH   8  24
ATOM     24  O   UNL     1       0.005  -8.874  11.311  1.00  0.00    -0.508 OA
ATOM     25  H   UNL     1      -0.285  -8.292  10.535  1.00  0.00     0.293 HD
ENDBRANCH   8  24
TORSDOF 5
ENDMDL
MODEL 4
REMARK VINA RESULT:    -3.985      2.445      7.926
REMARK INTER + INTRA:          -4.951
REMARK INTER:                  -4.677
REMARK INTRA:                  -0.274
REMARK UNBOUND:                -0.267
REMARK SMILES O=c1cc(-c2ccc(O)c(O)c2)oc2cc(O)cc(O)c12
REMARK SMILES IDX 4 1 3 2 2 3 1 4 21 5 19 6 18 7 16 8 15 9 14 10 13 11 5 12
REMARK SMILES IDX 6 13 7 14 8 15 12 16 10 17 9 18 11 20 20 22 17 24
REMARK H PARENT 9 19 11 21 20 23 17 25
REMARK Flexibility Score: inf
ROOT
ATOM      1  C   UNL     1       3.795 -12.764  11.396  1.00  0.00     0.138 A 
ATOM      2  C   UNL     1       2.606 -12.228  10.883  1.00  0.00     0.100 A 
ATOM      3  C   UNL     1       2.327 -10.873  11.059  1.00  0.00     0.197 A 
ATOM      4  O   UNL     1       1.226 -10.434  10.636  1.00  0.00    -0.289 OA
ATOM      5  C   UNL     1       3.261 -10.042  11.723  1.00  0.00     0.107 A 
ATOM      6  C   UNL     1       3.099  -8.639  11.932  1.00  0.00     0.134 A 
ATOM      7  C   UNL     1       4.047  -7.940  12.690  1.00  0.00     0.093 A 
ATOM      8  C   UNL     1       5.180  -8.582  13.198  1.00  0.00     0.123 A 
ATOM      9  C   UNL     1       5.371  -9.940  12.957  1.00  0.00     0.094 A 
ATOM     10  C   UNL     1       4.427 -10.672  12.234  1.00  0.00     0.146 A 
ATOM     11  O   UNL     1       4.641 -11.970  12.043  1.00  0.00    -0.456 OA
ENDROOT
BRANCH   1  12
ATOM     12  C   UNL     1       4.145 -14.198  11.235  1.00  0.00     0.021 A 
ATOM     13  C   UNL     1       5.421 -14.605  10.801  1.00  0.00     0.016 A 
ATOM     14  C   UNL     1       5.718 -15.962  10.650  1.00  0.00     0.051 A 
ATOM     15  C   UNL     1       4.746 -16.934  10.919  1.00  0.00     0.157 A 
ATOM     16  C   UNL     1       3.172 -15.180  11.492  1.00  0.00     0.062 A 
ATOM     17  C   UNL     1       3.467 -16.540  11.341  1.00  0.00     0.158 A 
BRANCH  15  18
ATOM     18  O   UNL     1       5.048 -18.287  10.768  1.00  0.00    -0.504 OA
ATOM     19  H   UNL     1       4.333 -18.969  10.547  1.00  0.00     0.293 HD
ENDBRANCH  15  18
BRANCH  17  20
ATOM     20  O   UNL     1       2.476 -17.482  11.614  1.00  0.00    -0.504 OA
ATOM     21  H   UNL     1       2.629 -18.255  12.251  1.00  0.00     0.293 HD
ENDBRANCH  17  20
ENDBRANCH   1  12
BRANCH   6  22
ATOM     22  O   UNL     1       2.048  -7.883  11.403  1.00  0.00    -0.507 OA
ATOM     23  H   UNL     1       1.728  -7.000  11.769  1.00  0.00     0.293 HD
ENDBRANCH   6  22
BRANCH   8  24
ATOM     24  O   UNL     1       6.125  -7.875  13.938  1.00  0.00    -0.508 OA
ATOM     25  H   UNL     1       6.039  -6.877  14.093  1.00  0.00     0.293 HD
ENDBRANCH   8  24
TORSDOF 5
ENDMDL
MODEL 5
REMARK VINA RESULT:    -3.223      1.318      2.792
REMARK INTER + INTRA:          -4.055
REMARK INTER:                  -3.793
REMARK INTRA:                  -0.262
REMARK UNBOUND:                -0.267
REMARK SMILES O=c1cc(-c2ccc(O)c(O)c2)oc2cc(O)cc(O)c12
REMARK SMILES IDX 4 1 3 2 2 3 1 4 21 5 19 6 18 7 16 8 15 9 14 10 13 11 5 12
REMARK SMILES IDX 6 13 7 14 8 15 12 16 10 17 9 18 11 20 20 22 17 24
REMARK H PARENT 9 19 11 21 20 23 17 25
REMARK Flexibility Score: inf
ROOT
ATOM      1  C   UNL     1       3.797 -14.843  11.169  1.00  0.00     0.138 A 
ATOM      2  C   UNL     1       2.883 -15.526  10.356  1.00  0.00     0.100 A 
ATOM      3  C   UNL     1       2.544 -16.846  10.655  1.00  0.00     0.197 A 
ATOM      4  O   UNL     1       1.763 -17.450   9.875  1.00  0.00    -0.289 OA
ATOM      5  C   UNL     1       3.096 -17.473  11.798  1.00  0.00     0.107 A 
ATOM      6  C   UNL     1       2.798 -18.803  12.222  1.00  0.00     0.134 A 
ATOM      7  C   UNL     1       3.483 -19.350  13.314  1.00  0.00     0.093 A 
ATOM      8  C   UNL     1       4.414 -18.595  14.032  1.00  0.00     0.123 A 
ATOM      9  C   UNL     1       4.675 -17.280  13.657  1.00  0.00     0.094 A 
ATOM     10  C   UNL     1       4.034 -16.717  12.551  1.00  0.00     0.146 A 
ATOM     11  O   UNL     1       4.327 -15.464  12.217  1.00  0.00    -0.456 OA
ENDROOT
BRANCH   1  12
ATOM     12  C   UNL     1       4.192 -13.438  10.899  1.00  0.00     0.021 A 
ATOM     13  C   UNL     1       5.371 -13.121  10.196  1.00  0.00     0.016 A 
ATOM     14  C   UNL     1       5.721 -11.788   9.964  1.00  0.00     0.051 A 
ATOM     15  C   UNL     1       4.908 -10.750  10.436  1.00  0.00     0.157 A 
ATOM     16  C   UNL     1       3.388 -12.389  11.379  1.00  0.00     0.062 A 
ATOM     17  C   UNL     1       3.737 -11.053  11.148  1.00  0.00     0.158 A 
BRANCH  15  18
ATOM     18  O   UNL     1       5.261  -9.422  10.202  1.00  0.00    -0.504 OA
ATOM     19  H   UNL     1       6.197  -9.164   9.915  1.00  0.00     0.293 HD
ENDBRANCH  15  18
BRANCH  17  20
ATOM     20  O   UNL     1       2.907 -10.044  11.634  1.00  0.00    -0.504 OA
ATOM     21  H   UNL     1       3.272  -9.153  11.951  1.00  0.00     0.293 HD
ENDBRANCH  17  20
ENDBRANCH   1  12
BRANCH   6  22
ATOM     22  O   UNL     1       1.829 -19.617  11.626  1.00  0.00    -0.507 OA
ATOM     23  H   UNL     1       1.781 -20.621  11.714  1.00  0.00     0.293 HD
ENDBRANCH   6  22
BRANCH   8  24
ATOM     24  O   UNL     1       5.079 -19.142  15.127  1.00  0.00    -0.508 OA
ATOM     25  H   UNL     1       4.574 -19.511  15.924  1.00  0.00     0.293 HD
ENDBRANCH   8  24
TORSDOF 5
ENDMDL
MODEL 6
REMARK VINA RESULT:    -3.013      1.865      6.775
REMARK INTER + INTRA:          -3.809
REMARK INTER:                  -3.492
REMARK INTRA:                  -0.317
REMARK UNBOUND:                -0.267
REMARK SMILES O=c1cc(-c2ccc(O)c(O)c2)oc2cc(O)cc(O)c12
REMARK SMILES IDX 4 1 3 2 2 3 1 4 21 5 19 6 18 7 16 8 15 9 14 10 13 11 5 12
REMARK SMILES IDX 6 13 7 14 8 15 12 16 10 17 9 18 11 20 20 22 17 24
REMARK H PARENT 9 19 11 21 20 23 17 25
REMARK Flexibility Score: inf
ROOT
ATOM      1  C   UNL     1       3.158 -16.221  11.344  1.00  0.00     0.138 A 
ATOM      2  C   UNL     1       4.447 -16.045  11.865  1.00  0.00     0.100 A 
ATOM      3  C   UNL     1       4.944 -14.756  12.057  1.00  0.00     0.197 A 
ATOM      4  O   UNL     1       6.125 -14.631  12.474  1.00  0.00    -0.289 OA
ATOM      5  C   UNL     1       4.131 -13.636  11.761  1.00  0.00     0.107 A 
ATOM      6  C   UNL     1       4.518 -12.275  11.948  1.00  0.00     0.134 A 
ATOM      7  C   UNL     1       3.664 -11.249  11.525  1.00  0.00     0.093 A 
ATOM      8  C   UNL     1       2.412 -11.535  10.974  1.00  0.00     0.123 A 
ATOM      9  C   UNL     1       2.005 -12.859  10.832  1.00  0.00     0.094 A 
ATOM     10  C   UNL     1       2.848 -13.905  11.213  1.00  0.00     0.146 A 
ATOM     11  O   UNL     1       2.426 -15.153  11.044  1.00  0.00    -0.456 OA
ENDROOT
BRANCH   1  12
ATOM     12  C   UNL     1       2.578 -17.569  11.122  1.00  0.00     0.021 A 
ATOM     13  C   UNL     1       3.362 -18.736  11.205  1.00  0.00     0.016 A 
ATOM     14  C   UNL     1       2.789 -19.992  10.982  1.00  0.00     0.051 A 
ATOM     15  C   UNL     1       1.430 -20.104  10.663  1.00  0.00     0.157 A 
ATOM     16  C   UNL     1       1.216 -17.691  10.790  1.00  0.00     0.062 A 
ATOM     17  C   UNL     1       0.641 -18.947  10.566  1.00  0.00     0.158 A 
BRANCH  15  18
ATOM     18  O   UNL     1       0.864 -21.358  10.443  1.00  0.00    -0.504 OA
ATOM     19  H   UNL     1       0.452 -21.606   9.551  1.00  0.00     0.293 HD
ENDBRANCH  15  18
BRANCH  17  20
ATOM     20  O   UNL     1      -0.714 -19.023  10.247  1.00  0.00    -0.504 OA
ATOM     21  H   UNL     1      -1.065 -18.778   9.329  1.00  0.00     0.293 HD
ENDBRANCH  17  20
ENDBRANCH   1  12
BRANCH   6  22
ATOM     22  O   UNL     1       5.711 -11.876  12.561  1.00  0.00    -0.507 OA
ATOM     23  H   UNL     1       6.210 -12.408  13.258  1.00  0.00     0.293 HD
ENDBRANCH   6  22
BRANCH   8  24
ATOM     24  O   UNL     1       1.563 -10.507  10.570  1.00  0.00    -0.508 OA
ATOM     25  H   UNL     1       0.937 -10.617   9.781  1.00  0.00     0.293 HD
ENDBRANCH   8  24
TORSDOF 5
ENDMDL
