MODEL 1
REMARK VINA RESULT:    -0.622      0.000      0.000
REMARK INTER + INTRA:          -0.963
REMARK INTER:                  -0.749
REMARK INTRA:                  -0.214
REMARK UNBOUND:                -0.214
REMARK SMILES O=c1c(O)c(-c2ccc(O)c(O)c2)oc2cc(O)cc(O)c12
REMARK SMILES IDX 5 1 3 2 2 3 1 4 22 5 20 6 19 7 17 8 16 9 15 10 14 11 6 12
REMARK SMILES IDX 7 13 8 14 9 15 13 16 11 17 10 18 12 20 4 22 21 24 18 26
REMARK H PARENT 10 19 12 21 4 23 21 25 18 27
REMARK Flexibility Score: inf
ROOT
ATOM      1  C   UNL     1      29.618  37.969  27.238  1.00  0.00     0.180 A 
ATOM      2  C   UNL     1      28.316  38.223  26.776  1.00  0.00     0.208 A 
ATOM      3  C   UNL     1      27.581  37.174  26.200  1.00  0.00     0.238 A 
ATOM      4  O   UNL     1      26.444  37.425  25.720  1.00  0.00    -0.285 OA
ATOM      5  C   UNL     1      28.134  35.872  26.144  1.00  0.00     0.111 A 
ATOM      6  C   UNL     1      27.463  34.725  25.623  1.00  0.00     0.134 A 
ATOM      7  C   UNL     1      28.150  33.508  25.522  1.00  0.00     0.093 A 
ATOM      8  C   UNL     1      29.463  33.382  25.981  1.00  0.00     0.123 A 
ATOM      9  C   UNL     1      30.109  34.482  26.542  1.00  0.00     0.094 A 
ATOM     10  C   UNL     1      29.463  35.718  26.621  1.00  0.00     0.146 A 
ATOM     11  O   UNL     1      30.123  36.744  27.143  1.00  0.00    -0.452 OA
ENDROOT
BRANCH   1  12
ATOM     12  C   UNL     1      30.459  39.026  27.843  1.00  0.00     0.025 A 
ATOM     13  C   UNL     1      30.149  39.582  29.095  1.00  0.00     0.016 A 
ATOM     14  C   UNL     1      30.944  40.597  29.635  1.00  0.00     0.051 A 
ATOM     15  C   UNL     1      32.051  41.080  28.926  1.00  0.00     0.157 A 
ATOM     16  C   UNL     1      31.558  39.528  27.127  1.00  0.00     0.062 A 
ATOM     17  C   UNL     1      32.357  40.544  27.664  1.00  0.00     0.158 A 
BRANCH  15  18
ATOM     18  O   UNL     1      32.843  42.091  29.467  1.00  0.00    -0.504 OA
ATOM     19  H   UNL     1      33.798  41.917  29.763  1.00  0.00     0.293 HD
ENDBRANCH  15  18
BRANCH  17  20
ATOM     20  O   UNL     1      33.448  41.008  26.929  1.00  0.00    -0.504 OA
ATOM     21  H   UNL     1      33.444  41.914  26.474  1.00  0.00     0.293 HD
ENDBRANCH  17  20
ENDBRANCH   1  12
BRANCH   2  22
ATOM     22  O   UNL     1      27.757  39.497  26.909  1.00  0.00    -0.502 OA
ATOM     23  H   UNL     1      27.056  39.853  26.271  1.00  0.00     0.293 HD
ENDBRANCH   2  22
BRANCH   6  24
ATOM     24  O   UNL     1      26.124  34.717  25.219  1.00  0.00    -0.507 OA
ATOM     25  H   UNL     1      25.509  35.515  25.244  1.00  0.00     0.293 HD
ENDBRANCH   6  24
BRANCH   8  26
ATOM     26  O   UNL     1      30.133  32.164  25.892  1.00  0.00    -0.508 OA
ATOM     27  H   UNL     1      29.720  31.364  25.429  1.00  0.00     0.293 HD
ENDBRANCH   8  26
TORSDOF 6
ENDMDL
MODEL 2
REMARK VINA RESULT:     0.643      3.160      5.466
REMARK INTER + INTRA:           0.561
REMARK INTER:                   0.851
REMARK INTRA:                  -0.290
REMARK UNBOUND:                -0.214
REMARK SMILES O=c1c(O)c(-c2ccc(O)c(O)c2)oc2cc(O)cc(O)c12
REMARK SMILES IDX 5 1 3 2 2 3 1 4 22 5 20 6 19 7 17 8 16 9 15 10 14 11 6 12
REMARK SMILES IDX 7 13 8 14 9 15 13 16 11 17 10 18 12 20 4 22 21 24 18 26
REMARK H PARENT 10 19 12 21 4 23 21 25 18 27
REMARK Flexibility Score: inf
ROOT
ATOM      1  C   UNL     1      29.678  37.724  26.352  1.00  0.00     0.180 A 
ATOM      2  C   UNL     1      28.368  37.224  26.447  1.00  0.00     0.208 A 
ATOM      3  C   UNL     1      27.698  37.298  27.678  1.00  0.00     0.238 A 
ATOM      4  O   UNL     1      26.554  36.781  27.776  1.00  0.00    -0.285 OA
ATOM      5  C   UNL     1      28.323  37.922  28.786  1.00  0.00     0.111 A 
ATOM      6  C   UNL     1      27.722  38.092  30.069  1.00  0.00     0.134 A 
ATOM      7  C   UNL     1      28.476  38.629  31.120  1.00  0.00     0.093 A 
ATOM      8  C   UNL     1      29.789  39.060  30.917  1.00  0.00     0.123 A 
ATOM      9  C   UNL     1      30.367  38.948  29.655  1.00  0.00     0.094 A 
ATOM     10  C   UNL     1      29.654  38.381  28.597  1.00  0.00     0.146 A 
ATOM     11  O   UNL     1      30.251  38.274  27.416  1.00  0.00    -0.452 OA
ENDROOT
BRANCH   1  12
ATOM     12  C   UNL     1      30.453  37.669  25.092  1.00  0.00     0.025 A 
ATOM     13  C   UNL     1      30.224  38.584  24.050  1.00  0.00     0.016 A 
ATOM     14  C   UNL     1      30.952  38.496  22.860  1.00  0.00     0.051 A 
ATOM     15  C   UNL     1      31.907  37.485  22.688  1.00  0.00     0.157 A 
ATOM     16  C   UNL     1      31.396  36.645  24.907  1.00  0.00     0.062 A 
ATOM     17  C   UNL     1      32.127  36.554  23.716  1.00  0.00     0.158 A 
BRANCH  15  18
ATOM     18  O   UNL     1      32.632  37.401  21.501  1.00  0.00    -0.504 OA
ATOM     19  H   UNL     1      33.640  37.296  21.501  1.00  0.00     0.293 HD
ENDBRANCH  15  18
BRANCH  17  20
ATOM     20  O   UNL     1      33.065  35.533  23.574  1.00  0.00    -0.504 OA
ATOM     21  H   UNL     1      32.888  34.589  23.900  1.00  0.00     0.293 HD
ENDBRANCH  17  20
ENDBRANCH   1  12
BRANCH   2  22
ATOM     22  O   UNL     1      27.739  36.681  25.323  1.00  0.00    -0.502 OA
ATOM     23  H   UNL     1      27.539  37.228  24.494  1.00  0.00     0.293 HD
ENDBRANCH   2  22
BRANCH   6  24
ATOM     24  O   UNL     1      26.390  37.779  30.357  1.00  0.00    -0.507 OA
ATOM     25  H   UNL     1      25.986  37.767  31.280  1.00  0.00     0.293 HD
ENDBRANCH   6  24
BRANCH   8  26
ATOM     26  O   UNL     1      30.526  39.609  31.965  1.00  0.00    -0.508 OA
ATOM     27  H   UNL     1      31.430  39.236  32.230  1.00  0.00     0.293 HD
ENDBRANCH   8  26
TORSDOF 6
ENDMDL
MODEL 3
REMARK VINA RESULT:     0.936      3.195      5.338
REMARK INTER + INTRA:           0.914
REMARK INTER:                   1.145
REMARK INTRA:                  -0.231
REMARK UNBOUND:                -0.214
REMARK SMILES O=c1c(O)c(-c2ccc(O)c(O)c2)oc2cc(O)cc(O)c12
REMARK SMILES IDX 5 1 3 2 2 3 1 4 22 5 20 6 19 7 17 8 16 9 15 10 14 11 6 12
REMARK SMILES IDX 7 13 8 14 9 15 13 16 11 17 10 18 12 20 4 22 21 24 18 26
REMARK H PARENT 10 19 12 21 4 23 21 25 18 27
REMARK Flexibility Score: inf
ROOT
ATOM      1  C   UNL     1      29.651  37.153  26.958  1.00  0.00     0.180 A 
ATOM      2  C   UNL     1      28.368  37.463  27.441  1.00  0.00     0.208 A 
ATOM      3  C   UNL     1      27.636  38.488  26.820  1.00  0.00     0.238 A 
ATOM      4  O   UNL     1      26.520  38.812  27.304  1.00  0.00    -0.285 OA
ATOM      5  C   UNL     1      28.172  39.153  25.690  1.00  0.00     0.111 A 
ATOM      6  C   UNL     1      27.501  40.176  24.955  1.00  0.00     0.134 A 
ATOM      7  C   UNL     1      28.173  40.836  23.917  1.00  0.00     0.093 A 
ATOM      8  C   UNL     1      29.468  40.466  23.548  1.00  0.00     0.123 A 
ATOM      9  C   UNL     1      30.111  39.431  24.224  1.00  0.00     0.094 A 
ATOM     10  C   UNL     1      29.482  38.781  25.287  1.00  0.00     0.146 A 
ATOM     11  O   UNL     1      30.140  37.815  25.917  1.00  0.00    -0.452 OA
ENDROOT
BRANCH   1  12
ATOM     12  C   UNL     1      30.487  36.095  27.569  1.00  0.00     0.025 A 
ATOM     13  C   UNL     1      30.167  34.734  27.427  1.00  0.00     0.016 A 
ATOM     14  C   UNL     1      30.959  33.755  28.034  1.00  0.00     0.051 A 
ATOM     15  C   UNL     1      32.071  34.121  28.803  1.00  0.00     0.157 A 
ATOM     16  C   UNL     1      31.590  36.458  28.359  1.00  0.00     0.062 A 
ATOM     17  C   UNL     1      32.385  35.480  28.968  1.00  0.00     0.158 A 
BRANCH  15  18
ATOM     18  O   UNL     1      32.859  33.142  29.406  1.00  0.00    -0.504 OA
ATOM     19  H   UNL     1      33.863  33.250  29.496  1.00  0.00     0.293 HD
ENDBRANCH  15  18
BRANCH  17  20
ATOM     20  O   UNL     1      33.481  35.878  29.734  1.00  0.00    -0.504 OA
ATOM     21  H   UNL     1      33.893  36.800  29.644  1.00  0.00     0.293 HD
ENDBRANCH  17  20
ENDBRANCH   1  12
BRANCH   2  22
ATOM     22  O   UNL     1      27.824  36.745  28.509  1.00  0.00    -0.502 OA
ATOM     23  H   UNL     1      26.929  36.976  28.921  1.00  0.00     0.293 HD
ENDBRANCH   2  22
BRANCH   6  24
ATOM     24  O   UNL     1      26.177  40.563  25.181  1.00  0.00    -0.507 OA
ATOM     25  H   UNL     1      25.859  41.101  25.971  1.00  0.00     0.293 HD
ENDBRANCH   6  24
BRANCH   8  26
ATOM     26  O   UNL     1      30.123  41.116  22.504  1.00  0.00    -0.508 OA
ATOM     27  H   UNL     1      30.907  40.693  22.025  1.00  0.00     0.293 HD
ENDBRANCH   8  26
TORSDOF 6
ENDMDL
MODEL 4
REMARK VINA RESULT:     1.844      1.162      2.859
REMARK INTER + INTRA:           2.007
REMARK INTER:                   2.306
REMARK INTRA:                  -0.299
REMARK UNBOUND:                -0.214
REMARK SMILES O=c1c(O)c(-c2ccc(O)c(O)c2)oc2cc(O)cc(O)c12
REMARK SMILES IDX 5 1 3 2 2 3 1 4 22 5 20 6 19 7 17 8 16 9 15 10 14 11 6 12
REMARK SMILES IDX 7 13 8 14 9 15 13 16 11 17 10 18 12 20 4 22 21 24 18 26
REMARK H PARENT 10 19 12 21 4 23 21 25 18 27
REMARK Flexibility Score: inf
ROOT
ATOM      1  C   UNL     1      30.479  37.342  27.572  1.00  0.00     0.180 A 
ATOM      2  C   UNL     1      31.142  36.151  27.915  1.00  0.00     0.208 A 
ATOM      3  C   UNL     1      30.612  34.926  27.479  1.00  0.00     0.238 A 
ATOM      4  O   UNL     1      31.168  33.860  27.853  1.00  0.00    -0.285 OA
ATOM      5  C   UNL     1      29.459  34.909  26.657  1.00  0.00     0.111 A 
ATOM      6  C   UNL     1      28.861  33.729  26.121  1.00  0.00     0.134 A 
ATOM      7  C   UNL     1      27.659  33.827  25.407  1.00  0.00     0.093 A 
ATOM      8  C   UNL     1      27.068  35.067  25.158  1.00  0.00     0.123 A 
ATOM      9  C   UNL     1      27.673  36.230  25.630  1.00  0.00     0.094 A 
ATOM     10  C   UNL     1      28.851  36.161  26.378  1.00  0.00     0.146 A 
ATOM     11  O   UNL     1      29.381  37.292  26.827  1.00  0.00    -0.452 OA
ENDROOT
BRANCH   1  12
ATOM     12  C   UNL     1      30.969  38.669  28.007  1.00  0.00     0.025 A 
ATOM     13  C   UNL     1      30.381  39.349  29.087  1.00  0.00     0.016 A 
ATOM     14  C   UNL     1      30.845  40.613  29.463  1.00  0.00     0.051 A 
ATOM     15  C   UNL     1      31.891  41.221  28.758  1.00  0.00     0.157 A 
ATOM     16  C   UNL     1      32.003  39.292  27.290  1.00  0.00     0.062 A 
ATOM     17  C   UNL     1      32.471  40.558  27.664  1.00  0.00     0.158 A 
BRANCH  15  18
ATOM     18  O   UNL     1      32.353  42.481  29.136  1.00  0.00    -0.504 OA
ATOM     19  H   UNL     1      32.020  42.937  29.978  1.00  0.00     0.293 HD
ENDBRANCH  15  18
BRANCH  17  20
ATOM     20  O   UNL     1      33.509  41.138  26.936  1.00  0.00    -0.504 OA
ATOM     21  H   UNL     1      34.302  40.600  26.606  1.00  0.00     0.293 HD
ENDBRANCH  17  20
ENDBRANCH   1  12
BRANCH   2  22
ATOM     22  O   UNL     1      32.322  36.193  28.663  1.00  0.00    -0.502 OA
ATOM     23  H   UNL     1      33.024  35.464  28.613  1.00  0.00     0.293 HD
ENDBRANCH   2  22
BRANCH   6  24
ATOM     24  O   UNL     1      29.414  32.450  26.234  1.00  0.00    -0.507 OA
ATOM     25  H   UNL     1      28.917  31.631  26.547  1.00  0.00     0.293 HD
ENDBRANCH   6  24
BRANCH   8  26
ATOM     26  O   UNL     1      25.881  35.156  24.433  1.00  0.00    -0.508 OA
ATOM     27  H   UNL     1      25.877  35.399  23.450  1.00  0.00     0.293 HD
ENDBRANCH   8  26
TORSDOF 6
ENDMDL
