MODEL 1
REMARK VINA RESULT:    -2.997      0.000      0.000
REMARK INTER + INTRA:         -13.031
REMARK INTER:                  -7.553
REMARK INTRA:                  -5.478
REMARK UNBOUND:                -5.478
REMARK SMILES CCCCCCCCCCCCCCCCCCCCCCCCCCCC(=O)[O-]
REMARK SMILES IDX 15 1 16 2 17 3 18 4 19 5 20 6 21 7 22 8 23 9 24 10 25 11
REMARK SMILES IDX 26 12 27 13 28 14 29 15 30 16 14 17 13 18 12 19 11 20 10 21
REMARK SMILES IDX 9 22 8 23 7 24 6 25 5 26 4 27 3 28 2 29 1 30
REMARK H PARENT
REMARK Flexibility Score: inf
ROOT
ATOM      1  C   UNL     1      41.741  34.467  48.670  1.00  0.00     0.000 C 
ENDROOT
BRANCH   1   2
ATOM      2  C   UNL     1      42.737  35.041  49.690  1.00  0.00     0.000 C 
BRANCH   2   3
ATOM      3  C   UNL     1      43.979  34.150  49.873  1.00  0.00     0.000 C 
BRANCH   3   4
ATOM      4  C   UNL     1      43.901  32.849  49.053  1.00  0.00     0.000 C 
BRANCH   4   5
ATOM      5  C   UNL     1      45.151  32.536  48.206  1.00  0.00     0.000 C 
BRANCH   5   6
ATOM      6  C   UNL     1      44.875  32.211  46.724  1.00  0.00     0.000 C 
BRANCH   6   7
ATOM      7  C   UNL     1      45.146  30.753  46.314  1.00  0.00     0.000 C 
BRANCH   7   8
ATOM      8  C   UNL     1      45.822  29.935  47.424  1.00  0.00     0.000 C 
BRANCH   8   9
ATOM      9  C   UNL     1      44.963  28.725  47.812  1.00  0.00     0.000 C 
BRANCH   9  10
ATOM     10  C   UNL     1      45.053  28.445  49.319  1.00  0.00     0.000 C 
BRANCH  10  11
ATOM     11  C   UNL     1      45.594  29.644  50.116  1.00  0.00     0.000 C 
BRANCH  11  12
ATOM     12  C   UNL     1      46.833  29.309  50.977  1.00  0.00     0.006 C 
BRANCH  12  13
ATOM     13  C   UNL     1      47.921  30.395  50.926  1.00  0.00     0.053 C 
BRANCH  13  14
ATOM     14  C   UNL     1      49.021  30.034  49.974  1.00  0.00     0.041 C 
ATOM     15  O   UNL     1      48.843  29.132  49.113  1.00  0.00    -0.550 OA
ATOM     16  O   UNL     1      50.241  30.690  50.039  1.00  0.00    -0.550 OA
ENDBRANCH  13  14
ENDBRANCH  12  13
ENDBRANCH  11  12
ENDBRANCH  10  11
ENDBRANCH   9  10
ENDBRANCH   8   9
ENDBRANCH   7   8
ENDBRANCH   6   7
ENDBRANCH   5   6
ENDBRANCH   4   5
ENDBRANCH   3   4
ENDBRANCH   2   3
ENDBRANCH   1   2
BRANCH   1  17
ATOM     17  C   UNL     1      40.863  35.549  48.021  1.00  0.00     0.000 C 
BRANCH  17  18
ATOM     18  C   UNL     1      40.704  35.304  46.516  1.00  0.00     0.000 C 
BRANCH  18  19
ATOM     19  C   UNL     1      41.406  34.003  46.098  1.00  0.00     0.000 C 
BRANCH  19  20
ATOM     20  C   UNL     1      42.538  34.239  45.085  1.00  0.00     0.000 C 
BRANCH  20  21
ATOM     21  C   UNL     1      43.183  35.628  45.235  1.00  0.00     0.000 C 
BRANCH  21  22
ATOM     22  C   UNL     1      44.385  35.621  46.192  1.00  0.00    -0.000 C 
BRANCH  22  23
ATOM     23  C   UNL     1      44.442  36.867  47.091  1.00  0.00    -0.000 C 
BRANCH  23  24
ATOM     24  C   UNL     1      45.808  36.981  47.783  1.00  0.00    -0.000 C 
BRANCH  24  25
ATOM     25  C   UNL     1      46.642  35.695  47.674  1.00  0.00    -0.000 C 
BRANCH  25  26
ATOM     26  C   UNL     1      47.853  35.695  48.624  1.00  0.00    -0.000 C 
BRANCH  26  27
ATOM     27  C   UNL     1      48.239  34.280  49.087  1.00  0.00    -0.000 C 
BRANCH  27  28
ATOM     28  C   UNL     1      49.274  33.618  48.166  1.00  0.00    -0.000 C 
BRANCH  28  29
ATOM     29  C   UNL     1      48.627  32.516  47.317  1.00  0.00    -0.003 C 
ATOM     30  C   UNL     1      48.614  32.893  45.838  1.00  0.00     0.004 C 
ENDBRANCH  28  29
ENDBRANCH  27  28
ENDBRANCH  26  27
ENDBRANCH  25  26
ENDBRANCH  24  25
ENDBRANCH  23  24
ENDBRANCH  22  23
ENDBRANCH  21  22
ENDBRANCH  20  21
ENDBRANCH  19  20
ENDBRANCH  18  19
ENDBRANCH  17  18
ENDBRANCH   1  17
TORSDOF 26
ENDMDL
MODEL 2
REMARK VINA RESULT:    -2.951      2.650      6.292
REMARK INTER + INTRA:         -12.915
REMARK INTER:                  -7.367
REMARK INTRA:                  -5.547
REMARK UNBOUND:                -5.478
REMARK SMILES CCCCCCCCCCCCCCCCCCCCCCCCCCCC(=O)[O-]
REMARK SMILES IDX 15 1 16 2 17 3 18 4 19 5 20 6 21 7 22 8 23 9 24 10 25 11
REMARK SMILES IDX 26 12 27 13 28 14 29 15 30 16 14 17 13 18 12 19 11 20 10 21
REMARK SMILES IDX 9 22 8 23 7 24 6 25 5 26 4 27 3 28 2 29 1 30
REMARK H PARENT
REMARK Flexibility Score: inf
ROOT
ATOM      1  C   UNL     1      43.851  34.238  49.869  1.00  0.00     0.000 C 
ENDROOT
BRANCH   1   2
ATOM      2  C   UNL     1      42.549  35.039  49.708  1.00  0.00     0.000 C 
BRANCH   2   3
ATOM      3  C   UNL     1      41.625  34.457  48.624  1.00  0.00     0.000 C 
BRANCH   3   4
ATOM      4  C   UNL     1      40.882  35.546  47.830  1.00  0.00     0.000 C 
BRANCH   4   5
ATOM      5  C   UNL     1      40.889  35.358  46.299  1.00  0.00     0.000 C 
BRANCH   5   6
ATOM      6  C   UNL     1      41.429  34.000  45.806  1.00  0.00     0.000 C 
BRANCH   6   7
ATOM      7  C   UNL     1      42.818  34.052  45.146  1.00  0.00     0.000 C 
BRANCH   7   8
ATOM      8  C   UNL     1      43.359  35.482  45.000  1.00  0.00     0.000 C 
BRANCH   8   9
ATOM      9  C   UNL     1      44.798  35.577  45.519  1.00  0.00     0.000 C 
BRANCH   9  10
ATOM     10  C   UNL     1      44.851  36.315  46.865  1.00  0.00     0.000 C 
BRANCH  10  11
ATOM     11  C   UNL     1      43.871  37.498  46.934  1.00  0.00     0.000 C 
BRANCH  11  12
ATOM     12  C   UNL     1      43.858  38.214  48.303  1.00  0.00     0.006 C 
BRANCH  12  13
ATOM     13  C   UNL     1      44.982  37.749  49.244  1.00  0.00     0.053 C 
BRANCH  13  14
ATOM     14  C   UNL     1      45.944  38.857  49.550  1.00  0.00     0.041 C 
ATOM     15  O   UNL     1      45.523  39.956  49.999  1.00  0.00    -0.550 OA
ATOM     16  O   UNL     1      47.304  38.678  49.338  1.00  0.00    -0.550 OA
ENDBRANCH  13  14
ENDBRANCH  12  13
ENDBRANCH  11  12
ENDBRANCH  10  11
ENDBRANCH   9  10
ENDBRANCH   8   9
ENDBRANCH   7   8
ENDBRANCH   6   7
ENDBRANCH   5   6
ENDBRANCH   4   5
ENDBRANCH   3   4
ENDBRANCH   2   3
ENDBRANCH   1   2
BRANCH   1  17
ATOM     17  C   UNL     1      43.876  32.963  49.010  1.00  0.00     0.000 C 
BRANCH  17  18
ATOM     18  C   UNL     1      45.076  32.961  48.057  1.00  0.00     0.000 C 
BRANCH  18  19
ATOM     19  C   UNL     1      44.982  31.793  47.063  1.00  0.00     0.000 C 
BRANCH  19  20
ATOM     20  C   UNL     1      46.362  31.289  46.608  1.00  0.00     0.000 C 
BRANCH  20  21
ATOM     21  C   UNL     1      47.181  32.377  45.893  1.00  0.00     0.000 C 
BRANCH  21  22
ATOM     22  C   UNL     1      48.360  32.881  46.739  1.00  0.00    -0.000 C 
BRANCH  22  23
ATOM     23  C   UNL     1      48.683  31.958  47.925  1.00  0.00    -0.000 C 
BRANCH  23  24
ATOM     24  C   UNL     1      48.521  32.702  49.258  1.00  0.00    -0.000 C 
BRANCH  24  25
ATOM     25  C   UNL     1      47.996  31.799  50.386  1.00  0.00    -0.000 C 
BRANCH  25  26
ATOM     26  C   UNL     1      48.161  30.302  50.067  1.00  0.00    -0.000 C 
BRANCH  26  27
ATOM     27  C   UNL     1      47.044  29.442  50.679  1.00  0.00    -0.000 C 
BRANCH  27  28
ATOM     28  C   UNL     1      45.656  29.789  50.120  1.00  0.00    -0.000 C 
BRANCH  28  29
ATOM     29  C   UNL     1      45.200  28.743  49.095  1.00  0.00    -0.003 C 
ATOM     30  C   UNL     1      45.689  27.347  49.475  1.00  0.00     0.004 C 
ENDBRANCH  28  29
ENDBRANCH  27  28
ENDBRANCH  26  27
ENDBRANCH  25  26
ENDBRANCH  24  25
ENDBRANCH  23  24
ENDBRANCH  22  23
ENDBRANCH  21  22
ENDBRANCH  20  21
ENDBRANCH  19  20
ENDBRANCH  18  19
ENDBRANCH  17  18
ENDBRANCH   1  17
TORSDOF 26
ENDMDL
MODEL 3
REMARK VINA RESULT:    -2.921      2.863      6.853
REMARK INTER + INTRA:         -12.838
REMARK INTER:                  -7.804
REMARK INTRA:                  -5.034
REMARK UNBOUND:                -5.478
REMARK SMILES CCCCCCCCCCCCCCCCCCCCCCCCCCCC(=O)[O-]
REMARK SMILES IDX 15 1 16 2 17 3 18 4 19 5 20 6 21 7 22 8 23 9 24 10 25 11
REMARK SMILES IDX 26 12 27 13 28 14 29 15 30 16 14 17 13 18 12 19 11 20 10 21
REMARK SMILES IDX 9 22 8 23 7 24 6 25 5 26 4 27 3 28 2 29 1 30
REMARK H PARENT
REMARK Flexibility Score: inf
ROOT
ATOM      1  C   UNL     1      43.952  34.348  49.812  1.00  0.00     0.000 C 
ENDROOT
BRANCH   1   2
ATOM      2  C   UNL     1      42.615  35.106  49.749  1.00  0.00     0.000 C 
BRANCH   2   3
ATOM      3  C   UNL     1      41.648  34.516  48.707  1.00  0.00     0.000 C 
BRANCH   3   4
ATOM      4  C   UNL     1      40.788  35.590  48.019  1.00  0.00     0.000 C 
BRANCH   4   5
ATOM      5  C   UNL     1      40.666  35.448  46.488  1.00  0.00     0.000 C 
BRANCH   5   6
ATOM      6  C   UNL     1      41.209  34.127  45.906  1.00  0.00     0.000 C 
BRANCH   6   7
ATOM      7  C   UNL     1      42.501  34.261  45.080  1.00  0.00     0.000 C 
BRANCH   7   8
ATOM      8  C   UNL     1      43.643  33.380  45.607  1.00  0.00     0.000 C 
BRANCH   8   9
ATOM      9  C   UNL     1      44.867  34.230  45.967  1.00  0.00     0.000 C 
BRANCH   9  10
ATOM     10  C   UNL     1      44.577  35.725  45.774  1.00  0.00     0.000 C 
BRANCH  10  11
ATOM     11  C   UNL     1      44.839  36.552  47.044  1.00  0.00     0.000 C 
BRANCH  11  12
ATOM     12  C   UNL     1      43.707  37.548  47.381  1.00  0.00     0.006 C 
BRANCH  12  13
ATOM     13  C   UNL     1      44.208  38.830  48.065  1.00  0.00     0.053 C 
BRANCH  13  14
ATOM     14  C   UNL     1      45.105  38.525  49.227  1.00  0.00     0.041 C 
ATOM     15  O   UNL     1      46.328  38.823  49.179  1.00  0.00    -0.550 OA
ATOM     16  O   UNL     1      44.591  37.910  50.360  1.00  0.00    -0.550 OA
ENDBRANCH  13  14
ENDBRANCH  12  13
ENDBRANCH  11  12
ENDBRANCH  10  11
ENDBRANCH   9  10
ENDBRANCH   8   9
ENDBRANCH   7   8
ENDBRANCH   6   7
ENDBRANCH   5   6
ENDBRANCH   4   5
ENDBRANCH   3   4
ENDBRANCH   2   3
ENDBRANCH   1   2
BRANCH   1  17
ATOM     17  C   UNL     1      43.855  32.923  49.244  1.00  0.00     0.000 C 
BRANCH  17  18
ATOM     18  C   UNL     1      45.207  32.204  49.321  1.00  0.00     0.000 C 
BRANCH  18  19
ATOM     19  C   UNL     1      46.364  33.193  49.109  1.00  0.00     0.000 C 
BRANCH  19  20
ATOM     20  C   UNL     1      47.695  32.681  49.685  1.00  0.00     0.000 C 
BRANCH  20  21
ATOM     21  C   UNL     1      47.693  31.159  49.911  1.00  0.00     0.000 C 
BRANCH  21  22
ATOM     22  C   UNL     1      48.932  30.472  49.316  1.00  0.00    -0.000 C 
BRANCH  22  23
ATOM     23  C   UNL     1      48.587  29.495  48.180  1.00  0.00    -0.000 C 
BRANCH  23  24
ATOM     24  C   UNL     1      47.517  30.090  47.253  1.00  0.00    -0.000 C 
BRANCH  24  25
ATOM     25  C   UNL     1      46.695  29.015  46.524  1.00  0.00    -0.000 C 
BRANCH  25  26
ATOM     26  C   UNL     1      45.190  29.112  46.834  1.00  0.00    -0.000 C 
BRANCH  26  27
ATOM     27  C   UNL     1      44.895  29.064  48.342  1.00  0.00    -0.000 C 
BRANCH  27  28
ATOM     28  C   UNL     1      44.825  27.630  48.887  1.00  0.00    -0.000 C 
BRANCH  28  29
ATOM     29  C   UNL     1      46.021  27.331  49.799  1.00  0.00    -0.003 C 
ATOM     30  C   UNL     1      46.952  26.298  49.170  1.00  0.00     0.004 C 
ENDBRANCH  28  29
ENDBRANCH  27  28
ENDBRANCH  26  27
ENDBRANCH  25  26
ENDBRANCH  24  25
ENDBRANCH  23  24
ENDBRANCH  22  23
ENDBRANCH  21  22
ENDBRANCH  20  21
ENDBRANCH  19  20
ENDBRANCH  18  19
ENDBRANCH  17  18
ENDBRANCH   1  17
TORSDOF 26
ENDMDL
MODEL 4
REMARK VINA RESULT:    -2.916      3.234      6.973
REMARK INTER + INTRA:         -12.825
REMARK INTER:                  -8.075
REMARK INTRA:                  -4.750
REMARK UNBOUND:                -5.478
REMARK SMILES CCCCCCCCCCCCCCCCCCCCCCCCCCCC(=O)[O-]
REMARK SMILES IDX 15 1 16 2 17 3 18 4 19 5 20 6 21 7 22 8 23 9 24 10 25 11
REMARK SMILES IDX 26 12 27 13 28 14 29 15 30 16 14 17 13 18 12 19 11 20 10 21
REMARK SMILES IDX 9 22 8 23 7 24 6 25 5 26 4 27 3 28 2 29 1 30
REMARK H PARENT
REMARK Flexibility Score: inf
ROOT
ATOM      1  C   UNL     1      44.232  34.286  49.767  1.00  0.00     0.000 C 
ENDROOT
BRANCH   1   2
ATOM      2  C   UNL     1      42.870  34.985  49.907  1.00  0.00     0.000 C 
BRANCH   2   3
ATOM      3  C   UNL     1      41.842  34.492  48.873  1.00  0.00     0.000 C 
BRANCH   3   4
ATOM      4  C   UNL     1      41.065  35.645  48.212  1.00  0.00     0.000 C 
BRANCH   4   5
ATOM      5  C   UNL     1      40.489  35.329  46.817  1.00  0.00     0.000 C 
BRANCH   5   6
ATOM      6  C   UNL     1      41.089  34.088  46.124  1.00  0.00     0.000 C 
BRANCH   6   7
ATOM      7  C   UNL     1      42.314  34.366  45.236  1.00  0.00     0.000 C 
BRANCH   7   8
ATOM      8  C   UNL     1      43.587  33.666  45.734  1.00  0.00     0.000 C 
BRANCH   8   9
ATOM      9  C   UNL     1      44.780  34.629  45.723  1.00  0.00     0.000 C 
BRANCH   9  10
ATOM     10  C   UNL     1      44.314  36.085  45.869  1.00  0.00     0.000 C 
BRANCH  10  11
ATOM     11  C   UNL     1      44.946  36.794  47.079  1.00  0.00     0.000 C 
BRANCH  11  12
ATOM     12  C   UNL     1      44.022  37.846  47.733  1.00  0.00     0.006 C 
BRANCH  12  13
ATOM     13  C   UNL     1      44.402  38.169  49.188  1.00  0.00     0.053 C 
BRANCH  13  14
ATOM     14  C   UNL     1      44.224  39.624  49.497  1.00  0.00     0.041 C 
ATOM     15  O   UNL     1      44.169  40.016  50.693  1.00  0.00    -0.550 OA
ATOM     16  O   UNL     1      44.117  40.548  48.467  1.00  0.00    -0.550 OA
ENDBRANCH  13  14
ENDBRANCH  12  13
ENDBRANCH  11  12
ENDBRANCH  10  11
ENDBRANCH   9  10
ENDBRANCH   8   9
ENDBRANCH   7   8
ENDBRANCH   6   7
ENDBRANCH   5   6
ENDBRANCH   4   5
ENDBRANCH   3   4
ENDBRANCH   2   3
ENDBRANCH   1   2
BRANCH   1  17
ATOM     17  C   UNL     1      44.108  32.835  49.275  1.00  0.00     0.000 C 
BRANCH  17  18
ATOM     18  C   UNL     1      45.459  32.113  49.336  1.00  0.00     0.000 C 
BRANCH  18  19
ATOM     19  C   UNL     1      46.228  32.279  48.016  1.00  0.00     0.000 C 
BRANCH  19  20
ATOM     20  C   UNL     1      47.697  32.678  48.232  1.00  0.00     0.000 C 
BRANCH  20  21
ATOM     21  C   UNL     1      47.991  33.084  49.686  1.00  0.00     0.000 C 
BRANCH  21  22
ATOM     22  C   UNL     1      49.060  32.198  50.344  1.00  0.00    -0.000 C 
BRANCH  22  23
ATOM     23  C   UNL     1      48.461  31.101  51.238  1.00  0.00    -0.000 C 
BRANCH  23  24
ATOM     24  C   UNL     1      47.954  29.922  50.394  1.00  0.00    -0.000 C 
BRANCH  24  25
ATOM     25  C   UNL     1      46.772  29.187  51.045  1.00  0.00    -0.000 C 
BRANCH  25  26
ATOM     26  C   UNL     1      46.130  28.153  50.104  1.00  0.00    -0.000 C 
BRANCH  26  27
ATOM     27  C   UNL     1      46.284  28.528  48.621  1.00  0.00    -0.000 C 
BRANCH  27  28
ATOM     28  C   UNL     1      44.935  28.658  47.899  1.00  0.00    -0.000 C 
BRANCH  28  29
ATOM     29  C   UNL     1      45.094  28.420  46.392  1.00  0.00    -0.003 C 
ATOM     30  C   UNL     1      45.995  29.477  45.758  1.00  0.00     0.004 C 
ENDBRANCH  28  29
ENDBRANCH  27  28
ENDBRANCH  26  27
ENDBRANCH  25  26
ENDBRANCH  24  25
ENDBRANCH  23  24
ENDBRANCH  22  23
ENDBRANCH  21  22
ENDBRANCH  20  21
ENDBRANCH  19  20
ENDBRANCH  18  19
ENDBRANCH  17  18
ENDBRANCH   1  17
TORSDOF 26
ENDMDL
MODEL 5
REMARK VINA RESULT:    -2.889      1.389      4.210
REMARK INTER + INTRA:         -12.757
REMARK INTER:                  -7.333
REMARK INTRA:                  -5.425
REMARK UNBOUND:                -5.478
REMARK SMILES CCCCCCCCCCCCCCCCCCCCCCCCCCCC(=O)[O-]
REMARK SMILES IDX 15 1 16 2 17 3 18 4 19 5 20 6 21 7 22 8 23 9 24 10 25 11
REMARK SMILES IDX 26 12 27 13 28 14 29 15 30 16 14 17 13 18 12 19 11 20 10 21
REMARK SMILES IDX 9 22 8 23 7 24 6 25 5 26 4 27 3 28 2 29 1 30
REMARK H PARENT
REMARK Flexibility Score: inf
ROOT
ATOM      1  C   UNL     1      45.080  32.913  48.693  1.00  0.00     0.000 C 
ENDROOT
BRANCH   1   2
ATOM      2  C   UNL     1      44.725  32.075  47.454  1.00  0.00     0.000 C 
BRANCH   2   3
ATOM      3  C   UNL     1      45.968  31.510  46.744  1.00  0.00     0.000 C 
BRANCH   3   4
ATOM      4  C   UNL     1      46.317  30.083  47.203  1.00  0.00     0.000 C 
BRANCH   4   5
ATOM      5  C   UNL     1      45.104  29.175  47.492  1.00  0.00     0.000 C 
BRANCH   5   6
ATOM      6  C   UNL     1      45.034  28.608  48.924  1.00  0.00     0.000 C 
BRANCH   6   7
ATOM      7  C   UNL     1      45.607  29.527  50.017  1.00  0.00     0.000 C 
BRANCH   7   8
ATOM      8  C   UNL     1      46.787  28.896  50.772  1.00  0.00     0.000 C 
BRANCH   8   9
ATOM      9  C   UNL     1      47.993  29.844  50.791  1.00  0.00     0.000 C 
BRANCH   9  10
ATOM     10  C   UNL     1      47.577  31.273  50.414  1.00  0.00     0.000 C 
BRANCH  10  11
ATOM     11  C   UNL     1      48.724  32.286  50.561  1.00  0.00     0.000 C 
BRANCH  11  12
ATOM     12  C   UNL     1      48.538  33.562  49.710  1.00  0.00     0.006 C 
BRANCH  12  13
ATOM     13  C   UNL     1      49.633  33.750  48.646  1.00  0.00     0.053 C 
BRANCH  13  14
ATOM     14  C   UNL     1      49.253  33.118  47.341  1.00  0.00     0.041 C 
ATOM     15  O   UNL     1      48.671  33.797  46.454  1.00  0.00    -0.550 OA
ATOM     16  O   UNL     1      49.537  31.780  47.106  1.00  0.00    -0.550 OA
ENDBRANCH  13  14
ENDBRANCH  12  13
ENDBRANCH  11  12
ENDBRANCH  10  11
ENDBRANCH   9  10
ENDBRANCH   8   9
ENDBRANCH   7   8
ENDBRANCH   6   7
ENDBRANCH   5   6
ENDBRANCH   4   5
ENDBRANCH   3   4
ENDBRANCH   2   3
ENDBRANCH   1   2
BRANCH   1  17
ATOM     17  C   UNL     1      43.848  33.288  49.532  1.00  0.00     0.000 C 
BRANCH  17  18
ATOM     18  C   UNL     1      43.837  34.786  49.860  1.00  0.00     0.000 C 
BRANCH  18  19
ATOM     19  C   UNL     1      42.494  35.422  49.469  1.00  0.00     0.000 C 
BRANCH  19  20
ATOM     20  C   UNL     1      41.627  34.491  48.606  1.00  0.00     0.000 C 
BRANCH  20  21
ATOM     21  C   UNL     1      40.709  35.265  47.643  1.00  0.00     0.000 C 
BRANCH  21  22
ATOM     22  C   UNL     1      40.850  34.797  46.187  1.00  0.00    -0.000 C 
BRANCH  22  23
ATOM     23  C   UNL     1      42.153  34.023  45.931  1.00  0.00    -0.000 C 
BRANCH  23  24
ATOM     24  C   UNL     1      43.147  34.873  45.125  1.00  0.00    -0.000 C 
BRANCH  24  25
ATOM     25  C   UNL     1      43.986  35.808  46.011  1.00  0.00    -0.000 C 
BRANCH  25  26
ATOM     26  C   UNL     1      45.465  35.386  46.078  1.00  0.00    -0.000 C 
BRANCH  26  27
ATOM     27  C   UNL     1      46.374  36.505  46.612  1.00  0.00    -0.000 C 
BRANCH  27  28
ATOM     28  C   UNL     1      46.695  36.347  48.105  1.00  0.00    -0.000 C 
BRANCH  28  29
ATOM     29  C   UNL     1      46.185  37.551  48.907  1.00  0.00    -0.003 C 
ATOM     30  C   UNL     1      45.497  38.568  47.999  1.00  0.00     0.004 C 
ENDBRANCH  28  29
ENDBRANCH  27  28
ENDBRANCH  26  27
ENDBRANCH  25  26
ENDBRANCH  24  25
ENDBRANCH  23  24
ENDBRANCH  22  23
ENDBRANCH  21  22
ENDBRANCH  20  21
ENDBRANCH  19  20
ENDBRANCH  18  19
ENDBRANCH  17  18
ENDBRANCH   1  17
TORSDOF 26
ENDMDL
MODEL 6
REMARK VINA RESULT:    -2.855      3.313      7.035
REMARK INTER + INTRA:         -12.672
REMARK INTER:                  -7.209
REMARK INTRA:                  -5.463
REMARK UNBOUND:                -5.478
REMARK SMILES CCCCCCCCCCCCCCCCCCCCCCCCCCCC(=O)[O-]
REMARK SMILES IDX 15 1 16 2 17 3 18 4 19 5 20 6 21 7 22 8 23 9 24 10 25 11
REMARK SMILES IDX 26 12 27 13 28 14 29 15 30 16 14 17 13 18 12 19 11 20 10 21
REMARK SMILES IDX 9 22 8 23 7 24 6 25 5 26 4 27 3 28 2 29 1 30
REMARK H PARENT
REMARK Flexibility Score: inf
ROOT
ATOM      1  C   UNL     1      44.284  35.450  49.767  1.00  0.00     0.000 C 
ENDROOT
BRANCH   1   2
ATOM      2  C   UNL     1      42.776  35.217  49.959  1.00  0.00     0.000 C 
BRANCH   2   3
ATOM      3  C   UNL     1      41.952  35.626  48.726  1.00  0.00     0.000 C 
BRANCH   3   4
ATOM      4  C   UNL     1      41.241  34.432  48.064  1.00  0.00     0.000 C 
BRANCH   4   5
ATOM      5  C   UNL     1      41.305  34.405  46.523  1.00  0.00     0.000 C 
BRANCH   5   6
ATOM      6  C   UNL     1      42.674  34.015  45.929  1.00  0.00     0.000 C 
BRANCH   6   7
ATOM      7  C   UNL     1      43.416  35.150  45.203  1.00  0.00     0.000 C 
BRANCH   7   8
ATOM      8  C   UNL     1      44.771  35.486  45.844  1.00  0.00     0.000 C 
BRANCH   8   9
ATOM      9  C   UNL     1      44.767  36.908  46.416  1.00  0.00     0.000 C 
BRANCH   9  10
ATOM     10  C   UNL     1      43.503  37.669  45.993  1.00  0.00     0.000 C 
BRANCH  10  11
ATOM     11  C   UNL     1      43.126  38.792  46.975  1.00  0.00     0.000 C 
BRANCH  11  12
ATOM     12  C   UNL     1      43.858  38.699  48.333  1.00  0.00     0.006 C 
BRANCH  12  13
ATOM     13  C   UNL     1      44.385  40.054  48.833  1.00  0.00     0.053 C 
BRANCH  13  14
ATOM     14  C   UNL     1      44.246  40.190  50.319  1.00  0.00     0.041 C 
ATOM     15  O   UNL     1      45.104  39.679  51.086  1.00  0.00    -0.550 OA
ATOM     16  O   UNL     1      43.167  40.878  50.857  1.00  0.00    -0.550 OA
ENDBRANCH  13  14
ENDBRANCH  12  13
ENDBRANCH  11  12
ENDBRANCH  10  11
ENDBRANCH   9  10
ENDBRANCH   8   9
ENDBRANCH   7   8
ENDBRANCH   6   7
ENDBRANCH   5   6
ENDBRANCH   4   5
ENDBRANCH   3   4
ENDBRANCH   2   3
ENDBRANCH   1   2
BRANCH   1  17
ATOM     17  C   UNL     1      45.002  34.232  49.164  1.00  0.00     0.000 C 
BRANCH  17  18
ATOM     18  C   UNL     1      44.336  32.923  49.604  1.00  0.00     0.000 C 
BRANCH  18  19
ATOM     19  C   UNL     1      44.397  31.875  48.482  1.00  0.00     0.000 C 
BRANCH  19  20
ATOM     20  C   UNL     1      45.504  32.168  47.456  1.00  0.00     0.000 C 
BRANCH  20  21
ATOM     21  C   UNL     1      45.618  31.072  46.382  1.00  0.00     0.000 C 
BRANCH  21  22
ATOM     22  C   UNL     1      46.633  29.981  46.756  1.00  0.00    -0.000 C 
BRANCH  22  23
ATOM     23  C   UNL     1      45.993  28.589  46.887  1.00  0.00    -0.000 C 
BRANCH  23  24
ATOM     24  C   UNL     1      46.201  28.021  48.299  1.00  0.00    -0.000 C 
BRANCH  24  25
ATOM     25  C   UNL     1      45.138  28.505  49.299  1.00  0.00    -0.000 C 
BRANCH  25  26
ATOM     26  C   UNL     1      45.752  29.245  50.500  1.00  0.00    -0.000 C 
BRANCH  26  27
ATOM     27  C   UNL     1      47.289  29.207  50.494  1.00  0.00    -0.000 C 
BRANCH  27  28
ATOM     28  C   UNL     1      47.917  30.558  50.868  1.00  0.00    -0.000 C 
BRANCH  28  29
ATOM     29  C   UNL     1      48.420  31.294  49.620  1.00  0.00    -0.003 C 
ATOM     30  C   UNL     1      48.290  32.807  49.781  1.00  0.00     0.004 C 
ENDBRANCH  28  29
ENDBRANCH  27  28
ENDBRANCH  26  27
ENDBRANCH  25  26
ENDBRANCH  24  25
ENDBRANCH  23  24
ENDBRANCH  22  23
ENDBRANCH  21  22
ENDBRANCH  20  21
ENDBRANCH  19  20
ENDBRANCH  18  19
ENDBRANCH  17  18
ENDBRANCH   1  17
TORSDOF 26
ENDMDL
MODEL 7
REMARK VINA RESULT:    -2.830      2.438      6.704
REMARK INTER + INTRA:         -12.611
REMARK INTER:                  -7.025
REMARK INTRA:                  -5.586
REMARK UNBOUND:                -5.478
REMARK SMILES CCCCCCCCCCCCCCCCCCCCCCCCCCCC(=O)[O-]
REMARK SMILES IDX 15 1 16 2 17 3 18 4 19 5 20 6 21 7 22 8 23 9 24 10 25 11
REMARK SMILES IDX 26 12 27 13 28 14 29 15 30 16 14 17 13 18 12 19 11 20 10 21
REMARK SMILES IDX 9 22 8 23 7 24 6 25 5 26 4 27 3 28 2 29 1 30
REMARK H PARENT
REMARK Flexibility Score: inf
ROOT
ATOM      1  C   UNL     1      49.149  31.588  51.400  1.00  0.00     0.000 C 
ENDROOT
BRANCH   1   2
ATOM      2  C   UNL     1      49.140  32.923  50.637  1.00  0.00     0.000 C 
BRANCH   2   3
ATOM      3  C   UNL     1      47.961  33.035  49.654  1.00  0.00     0.000 C 
BRANCH   3   4
ATOM      4  C   UNL     1      47.900  34.404  48.954  1.00  0.00     0.000 C 
BRANCH   4   5
ATOM      5  C   UNL     1      46.523  34.777  48.367  1.00  0.00     0.000 C 
BRANCH   5   6
ATOM      6  C   UNL     1      46.456  34.825  46.827  1.00  0.00     0.000 C 
BRANCH   6   7
ATOM      7  C   UNL     1      45.046  35.017  46.241  1.00  0.00     0.000 C 
BRANCH   7   8
ATOM      8  C   UNL     1      44.581  33.822  45.397  1.00  0.00     0.000 C 
BRANCH   8   9
ATOM      9  C   UNL     1      43.067  33.619  45.525  1.00  0.00     0.000 C 
BRANCH   9  10
ATOM     10  C   UNL     1      42.377  34.902  46.009  1.00  0.00     0.000 C 
BRANCH  10  11
ATOM     11  C   UNL     1      41.058  34.627  46.751  1.00  0.00     0.000 C 
BRANCH  11  12
ATOM     12  C   UNL     1      41.079  35.058  48.234  1.00  0.00     0.006 C 
BRANCH  12  13
ATOM     13  C   UNL     1      42.453  35.567  48.701  1.00  0.00     0.053 C 
BRANCH  13  14
ATOM     14  C   UNL     1      43.032  34.695  49.775  1.00  0.00     0.041 C 
ATOM     15  O   UNL     1      43.432  33.533  49.500  1.00  0.00    -0.550 OA
ATOM     16  O   UNL     1      43.126  35.165  51.077  1.00  0.00    -0.550 OA
ENDBRANCH  13  14
ENDBRANCH  12  13
ENDBRANCH  11  12
ENDBRANCH  10  11
ENDBRANCH   9  10
ENDBRANCH   8   9
ENDBRANCH   7   8
ENDBRANCH   6   7
ENDBRANCH   5   6
ENDBRANCH   4   5
ENDBRANCH   3   4
ENDBRANCH   2   3
ENDBRANCH   1   2
BRANCH   1  17
ATOM     17  C   UNL     1      48.163  30.563  50.818  1.00  0.00     0.000 C 
BRANCH  17  18
ATOM     18  C   UNL     1      48.904  29.404  50.141  1.00  0.00     0.000 C 
BRANCH  18  19
ATOM     19  C   UNL     1      47.954  28.225  49.880  1.00  0.00     0.000 C 
BRANCH  19  20
ATOM     20  C   UNL     1      46.503  28.531  50.287  1.00  0.00     0.000 C 
BRANCH  20  21
ATOM     21  C   UNL     1      45.476  27.897  49.333  1.00  0.00     0.000 C 
BRANCH  21  22
ATOM     22  C   UNL     1      44.828  28.926  48.394  1.00  0.00    -0.000 C 
BRANCH  22  23
ATOM     23  C   UNL     1      45.051  30.377  48.850  1.00  0.00    -0.000 C 
BRANCH  23  24
ATOM     24  C   UNL     1      45.580  31.239  47.695  1.00  0.00    -0.000 C 
BRANCH  24  25
ATOM     25  C   UNL     1      46.381  30.428  46.664  1.00  0.00    -0.000 C 
BRANCH  25  26
ATOM     26  C   UNL     1      47.902  30.597  46.833  1.00  0.00    -0.000 C 
BRANCH  26  27
ATOM     27  C   UNL     1      48.438  31.852  46.125  1.00  0.00    -0.000 C 
BRANCH  27  28
ATOM     28  C   UNL     1      49.866  32.213  46.561  1.00  0.00    -0.000 C 
BRANCH  28  29
ATOM     29  C   UNL     1      50.553  31.018  47.235  1.00  0.00    -0.003 C 
ATOM     30  C   UNL     1      51.542  31.479  48.302  1.00  0.00     0.004 C 
ENDBRANCH  28  29
ENDBRANCH  27  28
ENDBRANCH  26  27
ENDBRANCH  25  26
ENDBRANCH  24  25
ENDBRANCH  23  24
ENDBRANCH  22  23
ENDBRANCH  21  22
ENDBRANCH  20  21
ENDBRANCH  19  20
ENDBRANCH  18  19
ENDBRANCH  17  18
ENDBRANCH   1  17
TORSDOF 26
ENDMDL
MODEL 8
REMARK VINA RESULT:    -2.821      1.824      3.385
REMARK INTER + INTRA:         -12.587
REMARK INTER:                  -7.903
REMARK INTRA:                  -4.684
REMARK UNBOUND:                -5.478
REMARK SMILES CCCCCCCCCCCCCCCCCCCCCCCCCCCC(=O)[O-]
REMARK SMILES IDX 15 1 16 2 17 3 18 4 19 5 20 6 21 7 22 8 23 9 24 10 25 11
REMARK SMILES IDX 26 12 27 13 28 14 29 15 30 16 14 17 13 18 12 19 11 20 10 21
REMARK SMILES IDX 9 22 8 23 7 24 6 25 5 26 4 27 3 28 2 29 1 30
REMARK H PARENT
REMARK Flexibility Score: inf
ROOT
ATOM      1  C   UNL     1      44.322  34.484  49.435  1.00  0.00     0.000 C 
ENDROOT
BRANCH   1   2
ATOM      2  C   UNL     1      43.988  33.034  49.046  1.00  0.00     0.000 C 
BRANCH   2   3
ATOM      3  C   UNL     1      45.136  32.058  49.359  1.00  0.00     0.000 C 
BRANCH   3   4
ATOM      4  C   UNL     1      45.802  31.497  48.090  1.00  0.00     0.000 C 
BRANCH   4   5
ATOM      5  C   UNL     1      45.393  30.056  47.720  1.00  0.00     0.000 C 
BRANCH   5   6
ATOM      6  C   UNL     1      44.917  29.185  48.900  1.00  0.00     0.000 C 
BRANCH   6   7
ATOM      7  C   UNL     1      45.592  27.807  49.008  1.00  0.00     0.000 C 
BRANCH   7   8
ATOM      8  C   UNL     1      46.440  27.653  50.279  1.00  0.00     0.000 C 
BRANCH   8   9
ATOM      9  C   UNL     1      46.684  29.014  50.942  1.00  0.00     0.000 C 
BRANCH   9  10
ATOM     10  C   UNL     1      48.103  29.522  50.651  1.00  0.00     0.000 C 
BRANCH  10  11
ATOM     11  C   UNL     1      48.276  31.018  50.964  1.00  0.00     0.000 C 
BRANCH  11  12
ATOM     12  C   UNL     1      49.737  31.424  51.260  1.00  0.00     0.006 C 
BRANCH  12  13
ATOM     13  C   UNL     1      49.857  32.556  52.294  1.00  0.00     0.053 C 
BRANCH  13  14
ATOM     14  C   UNL     1      50.284  32.039  53.635  1.00  0.00     0.041 C 
ATOM     15  O   UNL     1      51.337  31.358  53.745  1.00  0.00    -0.550 OA
ATOM     16  O   UNL     1      49.519  32.308  54.761  1.00  0.00    -0.550 OA
ENDBRANCH  13  14
ENDBRANCH  12  13
ENDBRANCH  11  12
ENDBRANCH  10  11
ENDBRANCH   9  10
ENDBRANCH   8   9
ENDBRANCH   7   8
ENDBRANCH   6   7
ENDBRANCH   5   6
ENDBRANCH   4   5
ENDBRANCH   3   4
ENDBRANCH   2   3
ENDBRANCH   1   2
BRANCH   1  17
ATOM     17  C   UNL     1      43.166  35.457  49.152  1.00  0.00     0.000 C 
BRANCH  17  18
ATOM     18  C   UNL     1      41.853  34.702  48.915  1.00  0.00     0.000 C 
BRANCH  18  19
ATOM     19  C   UNL     1      40.848  35.580  48.153  1.00  0.00     0.000 C 
BRANCH  19  20
ATOM     20  C   UNL     1      41.051  35.528  46.630  1.00  0.00     0.000 C 
BRANCH  20  21
ATOM     21  C   UNL     1      41.243  34.093  46.109  1.00  0.00     0.000 C 
BRANCH  21  22
ATOM     22  C   UNL     1      42.412  33.975  45.118  1.00  0.00    -0.000 C 
BRANCH  22  23
ATOM     23  C   UNL     1      43.429  35.120  45.253  1.00  0.00    -0.000 C 
BRANCH  23  24
ATOM     24  C   UNL     1      44.786  34.593  45.741  1.00  0.00    -0.000 C 
BRANCH  24  25
ATOM     25  C   UNL     1      45.227  33.314  45.010  1.00  0.00    -0.000 C 
BRANCH  25  26
ATOM     26  C   UNL     1      46.757  33.146  44.987  1.00  0.00    -0.000 C 
BRANCH  26  27
ATOM     27  C   UNL     1      47.494  34.374  45.545  1.00  0.00    -0.000 C 
BRANCH  27  28
ATOM     28  C   UNL     1      48.298  34.056  46.814  1.00  0.00    -0.000 C 
BRANCH  28  29
ATOM     29  C   UNL     1      47.660  34.709  48.047  1.00  0.00    -0.003 C 
ATOM     30  C   UNL     1      48.405  34.326  49.323  1.00  0.00     0.004 C 
ENDBRANCH  28  29
ENDBRANCH  27  28
ENDBRANCH  26  27
ENDBRANCH  25  26
ENDBRANCH  24  25
ENDBRANCH  23  24
ENDBRANCH  22  23
ENDBRANCH  21  22
ENDBRANCH  20  21
ENDBRANCH  19  20
ENDBRANCH  18  19
ENDBRANCH  17  18
ENDBRANCH   1  17
TORSDOF 26
ENDMDL
MODEL 9
REMARK VINA RESULT:    -2.793      1.966      4.087
REMARK INTER + INTRA:         -12.516
REMARK INTER:                  -7.427
REMARK INTRA:                  -5.088
REMARK UNBOUND:                -5.478
REMARK SMILES CCCCCCCCCCCCCCCCCCCCCCCCCCCC(=O)[O-]
REMARK SMILES IDX 15 1 16 2 17 3 18 4 19 5 20 6 21 7 22 8 23 9 24 10 25 11
REMARK SMILES IDX 26 12 27 13 28 14 29 15 30 16 14 17 13 18 12 19 11 20 10 21
REMARK SMILES IDX 9 22 8 23 7 24 6 25 5 26 4 27 3 28 2 29 1 30
REMARK H PARENT
REMARK Flexibility Score: inf
ROOT
ATOM      1  C   UNL     1      42.453  35.178  49.755  1.00  0.00     0.000 C 
ENDROOT
BRANCH   1   2
ATOM      2  C   UNL     1      43.677  34.363  50.204  1.00  0.00     0.000 C 
BRANCH   2   3
ATOM      3  C   UNL     1      44.323  33.578  49.049  1.00  0.00     0.000 C 
BRANCH   3   4
ATOM      4  C   UNL     1      44.660  32.126  49.431  1.00  0.00     0.000 C 
BRANCH   4   5
ATOM      5  C   UNL     1      45.027  31.207  48.249  1.00  0.00     0.000 C 
BRANCH   5   6
ATOM      6  C   UNL     1      45.047  31.891  46.867  1.00  0.00     0.000 C 
BRANCH   6   7
ATOM      7  C   UNL     1      46.447  32.099  46.263  1.00  0.00     0.000 C 
BRANCH   7   8
ATOM      8  C   UNL     1      46.616  33.477  45.606  1.00  0.00     0.000 C 
BRANCH   8   9
ATOM      9  C   UNL     1      47.723  34.281  46.299  1.00  0.00     0.000 C 
BRANCH   9  10
ATOM     10  C   UNL     1      48.389  33.457  47.410  1.00  0.00     0.000 C 
BRANCH  10  11
ATOM     11  C   UNL     1      47.967  33.905  48.820  1.00  0.00     0.000 C 
BRANCH  11  12
ATOM     12  C   UNL     1      48.310  32.882  49.925  1.00  0.00     0.006 C 
BRANCH  12  13
ATOM     13  C   UNL     1      48.322  31.427  49.426  1.00  0.00     0.053 C 
BRANCH  13  14
ATOM     14  C   UNL     1      48.482  30.454  50.555  1.00  0.00     0.041 C 
ATOM     15  O   UNL     1      49.632  30.093  50.922  1.00  0.00    -0.550 OA
ATOM     16  O   UNL     1      47.364  29.944  51.199  1.00  0.00    -0.550 OA
ENDBRANCH  13  14
ENDBRANCH  12  13
ENDBRANCH  11  12
ENDBRANCH  10  11
ENDBRANCH   9  10
ENDBRANCH   8   9
ENDBRANCH   7   8
ENDBRANCH   6   7
ENDBRANCH   5   6
ENDBRANCH   4   5
ENDBRANCH   3   4
ENDBRANCH   2   3
ENDBRANCH   1   2
BRANCH   1  17
ATOM     17  C   UNL     1      41.649  34.482  48.645  1.00  0.00     0.000 C 
BRANCH  17  18
ATOM     18  C   UNL     1      40.830  35.495  47.836  1.00  0.00     0.000 C 
BRANCH  18  19
ATOM     19  C   UNL     1      40.865  35.153  46.338  1.00  0.00     0.000 C 
BRANCH  19  20
ATOM     20  C   UNL     1      41.848  34.018  46.011  1.00  0.00     0.000 C 
BRANCH  20  21
ATOM     21  C   UNL     1      43.039  34.495  45.163  1.00  0.00     0.000 C 
BRANCH  21  22
ATOM     22  C   UNL     1      43.387  35.971  45.410  1.00  0.00    -0.000 C 
BRANCH  22  23
ATOM     23  C   UNL     1      44.545  36.156  46.404  1.00  0.00    -0.000 C 
BRANCH  23  24
ATOM     24  C   UNL     1      44.247  37.297  47.387  1.00  0.00    -0.000 C 
BRANCH  24  25
ATOM     25  C   UNL     1      45.201  37.311  48.592  1.00  0.00    -0.000 C 
BRANCH  25  26
ATOM     26  C   UNL     1      45.463  38.732  49.121  1.00  0.00    -0.000 C 
BRANCH  26  27
ATOM     27  C   UNL     1      44.169  39.461  49.520  1.00  0.00    -0.000 C 
BRANCH  27  28
ATOM     28  C   UNL     1      44.256  40.104  50.912  1.00  0.00    -0.000 C 
BRANCH  28  29
ATOM     29  C   UNL     1      44.948  39.164  51.908  1.00  0.00    -0.003 C 
ATOM     30  C   UNL     1      43.927  38.394  52.742  1.00  0.00     0.004 C 
ENDBRANCH  28  29
ENDBRANCH  27  28
ENDBRANCH  26  27
ENDBRANCH  25  26
ENDBRANCH  24  25
ENDBRANCH  23  24
ENDBRANCH  22  23
ENDBRANCH  21  22
ENDBRANCH  20  21
ENDBRANCH  19  20
ENDBRANCH  18  19
ENDBRANCH  17  18
ENDBRANCH   1  17
TORSDOF 26
ENDMDL
