MODEL 1
REMARK VINA RESULT:    -3.939      0.000      0.000
REMARK INTER + INTRA:          -9.493
REMARK INTER:                  -7.164
REMARK INTRA:                  -2.329
REMARK UNBOUND:                -2.329
REMARK SMILES CCCCCCCCCCCCCCCC(=O)[O-]
REMARK SMILES IDX 9 1 10 2 11 3 12 4 13 5 14 6 15 7 16 8 17 9 18 10 8 11 7 12
REMARK SMILES IDX 6 13 5 14 4 15 3 16 2 17 1 18
REMARK H PARENT
REMARK Flexibility Score: inf
ROOT
ATOM      1  C   UNL     1     148.268 137.634 138.077  1.00  0.00     0.000 C 
ENDROOT
BRANCH   1   2
ATOM      2  C   UNL     1     149.550 138.481 138.217  1.00  0.00     0.000 C 
BRANCH   2   3
ATOM      3  C   UNL     1     149.373 139.986 137.931  1.00  0.00     0.000 C 
BRANCH   3   4
ATOM      4  C   UNL     1     148.470 140.320 136.727  1.00  0.00     0.000 C 
BRANCH   4   5
ATOM      5  C   UNL     1     147.455 141.451 136.971  1.00  0.00     0.000 C 
BRANCH   5   6
ATOM      6  C   UNL     1     146.321 141.043 137.923  1.00  0.00     0.006 C 
BRANCH   6   7
ATOM      7  C   UNL     1     145.330 140.105 137.225  1.00  0.00     0.053 C 
BRANCH   7   8
ATOM      8  C   UNL     1     144.077 140.840 136.868  1.00  0.00     0.041 C 
ATOM      9  O   UNL     1     143.012 140.624 137.503  1.00  0.00    -0.550 OA
ATOM     10  O   UNL     1     144.073 141.729 135.800  1.00  0.00    -0.550 OA
ENDBRANCH   7   8
ENDBRANCH   6   7
ENDBRANCH   5   6
ENDBRANCH   4   5
ENDBRANCH   3   4
ENDBRANCH   2   3
ENDBRANCH   1   2
BRANCH   1  11
ATOM     11  C   UNL     1     147.726 137.042 139.392  1.00  0.00     0.000 C 
BRANCH  11  12
ATOM     12  C   UNL     1     146.587 137.877 139.999  1.00  0.00    -0.000 C 
BRANCH  12  13
ATOM     13  C   UNL     1     147.100 139.032 140.877  1.00  0.00    -0.000 C 
BRANCH  13  14
ATOM     14  C   UNL     1     148.243 138.625 141.832  1.00  0.00    -0.000 C 
BRANCH  14  15
ATOM     15  C   UNL     1     149.311 139.726 141.959  1.00  0.00    -0.000 C 
BRANCH  15  16
ATOM     16  C   UNL     1     148.707 141.080 142.388  1.00  0.00    -0.000 C 
BRANCH  16  17
ATOM     17  C   UNL     1     149.005 142.227 141.407  1.00  0.00    -0.003 C 
ATOM     18  C   UNL     1     147.741 142.900 140.876  1.00  0.00     0.004 C 
ENDBRANCH  16  17
ENDBRANCH  15  16
ENDBRANCH  14  15
ENDBRANCH  13  14
ENDBRANCH  12  13
ENDBRANCH  11  12
ENDBRANCH   1  11
TORSDOF 14
ENDMDL
MODEL 2
REMARK VINA RESULT:    -3.901      1.417      4.022
REMARK INTER + INTRA:          -9.423
REMARK INTER:                  -6.960
REMARK INTRA:                  -2.463
REMARK UNBOUND:                -2.329
REMARK SMILES CCCCCCCCCCCCCCCC(=O)[O-]
REMARK SMILES IDX 9 1 10 2 11 3 12 4 13 5 14 6 15 7 16 8 17 9 18 10 8 11 7 12
REMARK SMILES IDX 6 13 5 14 4 15 3 16 2 17 1 18
REMARK H PARENT
REMARK Flexibility Score: inf
ROOT
ATOM      1  C   UNL     1     148.810 141.123 142.443  1.00  0.00     0.000 C 
ENDROOT
BRANCH   1   2
ATOM      2  C   UNL     1     149.069 142.526 141.855  1.00  0.00     0.000 C 
BRANCH   2   3
ATOM      3  C   UNL     1     149.373 142.555 140.344  1.00  0.00     0.000 C 
BRANCH   3   4
ATOM      4  C   UNL     1     149.842 141.213 139.747  1.00  0.00     0.000 C 
BRANCH   4   5
ATOM      5  C   UNL     1     148.937 140.646 138.638  1.00  0.00     0.000 C 
BRANCH   5   6
ATOM      6  C   UNL     1     147.557 141.317 138.590  1.00  0.00     0.006 C 
BRANCH   6   7
ATOM      7  C   UNL     1     146.458 140.290 138.299  1.00  0.00     0.053 C 
BRANCH   7   8
ATOM      8  C   UNL     1     145.741 140.636 137.032  1.00  0.00     0.041 C 
ATOM      9  O   UNL     1     144.812 141.484 137.041  1.00  0.00    -0.550 OA
ATOM     10  O   UNL     1     146.067 139.984 135.849  1.00  0.00    -0.550 OA
ENDBRANCH   7   8
ENDBRANCH   6   7
ENDBRANCH   5   6
ENDBRANCH   4   5
ENDBRANCH   3   4
ENDBRANCH   2   3
ENDBRANCH   1   2
BRANCH   1  11
ATOM     11  C   UNL     1     147.331 140.698 142.497  1.00  0.00     0.000 C 
BRANCH  11  12
ATOM     12  C   UNL     1     147.080 139.323 141.858  1.00  0.00    -0.000 C 
BRANCH  12  13
ATOM     13  C   UNL     1     148.363 138.481 141.737  1.00  0.00    -0.000 C 
BRANCH  13  14
ATOM     14  C   UNL     1     148.349 137.495 140.549  1.00  0.00    -0.000 C 
BRANCH  14  15
ATOM     15  C   UNL     1     149.730 137.370 139.883  1.00  0.00    -0.000 C 
BRANCH  15  16
ATOM     16  C   UNL     1     149.640 136.814 138.446  1.00  0.00    -0.000 C 
BRANCH  16  17
ATOM     17  C   UNL     1     148.304 137.120 137.748  1.00  0.00    -0.003 C 
ATOM     18  C   UNL     1     147.555 135.862 137.315  1.00  0.00     0.004 C 
ENDBRANCH  16  17
ENDBRANCH  15  16
ENDBRANCH  14  15
ENDBRANCH  13  14
ENDBRANCH  12  13
ENDBRANCH  11  12
ENDBRANCH   1  11
TORSDOF 14
ENDMDL
MODEL 3
REMARK VINA RESULT:    -3.848      1.405      3.281
REMARK INTER + INTRA:          -9.326
REMARK INTER:                  -7.224
REMARK INTRA:                  -2.102
REMARK UNBOUND:                -2.329
REMARK SMILES CCCCCCCCCCCCCCCC(=O)[O-]
REMARK SMILES IDX 9 1 10 2 11 3 12 4 13 5 14 6 15 7 16 8 17 9 18 10 8 11 7 12
REMARK SMILES IDX 6 13 5 14 4 15 3 16 2 17 1 18
REMARK H PARENT
REMARK Flexibility Score: inf
ROOT
ATOM      1  C   UNL     1     149.119 140.465 138.828  1.00  0.00     0.000 C 
ENDROOT
BRANCH   1   2
ATOM      2  C   UNL     1     147.784 141.135 138.445  1.00  0.00     0.000 C 
BRANCH   2   3
ATOM      3  C   UNL     1     146.586 140.174 138.308  1.00  0.00     0.000 C 
BRANCH   3   4
ATOM      4  C   UNL     1     146.773 139.041 137.279  1.00  0.00     0.000 C 
BRANCH   4   5
ATOM      5  C   UNL     1     146.457 139.428 135.823  1.00  0.00     0.000 C 
BRANCH   5   6
ATOM      6  C   UNL     1     145.135 138.831 135.319  1.00  0.00     0.006 C 
BRANCH   6   7
ATOM      7  C   UNL     1     144.209 139.926 134.781  1.00  0.00     0.053 C 
BRANCH   7   8
ATOM      8  C   UNL     1     143.827 140.873 135.874  1.00  0.00     0.041 C 
ATOM      9  O   UNL     1     142.980 140.533 136.740  1.00  0.00    -0.550 OA
ATOM     10  O   UNL     1     144.373 142.151 135.910  1.00  0.00    -0.550 OA
ENDBRANCH   7   8
ENDBRANCH   6   7
ENDBRANCH   5   6
ENDBRANCH   4   5
ENDBRANCH   3   4
ENDBRANCH   2   3
ENDBRANCH   1   2
BRANCH   1  11
ATOM     11  C   UNL     1     149.950 141.217 139.885  1.00  0.00     0.000 C 
BRANCH  11  12
ATOM     12  C   UNL     1     149.350 142.582 140.258  1.00  0.00    -0.000 C 
BRANCH  12  13
ATOM     13  C   UNL     1     148.927 142.661 141.736  1.00  0.00    -0.000 C 
BRANCH  13  14
ATOM     14  C   UNL     1     148.789 141.282 142.416  1.00  0.00    -0.000 C 
BRANCH  14  15
ATOM     15  C   UNL     1     147.322 140.826 142.509  1.00  0.00    -0.000 C 
BRANCH  15  16
ATOM     16  C   UNL     1     147.099 139.436 141.875  1.00  0.00    -0.000 C 
BRANCH  16  17
ATOM     17  C   UNL     1     148.351 138.544 141.889  1.00  0.00    -0.003 C 
ATOM     18  C   UNL     1     148.305 137.435 140.839  1.00  0.00     0.004 C 
ENDBRANCH  16  17
ENDBRANCH  15  16
ENDBRANCH  14  15
ENDBRANCH  13  14
ENDBRANCH  12  13
ENDBRANCH  11  12
ENDBRANCH   1  11
TORSDOF 14
ENDMDL
MODEL 4
REMARK VINA RESULT:    -3.825      2.567      5.382
REMARK INTER + INTRA:          -9.284
REMARK INTER:                  -7.266
REMARK INTRA:                  -2.018
REMARK UNBOUND:                -2.329
REMARK SMILES CCCCCCCCCCCCCCCC(=O)[O-]
REMARK SMILES IDX 9 1 10 2 11 3 12 4 13 5 14 6 15 7 16 8 17 9 18 10 8 11 7 12
REMARK SMILES IDX 6 13 5 14 4 15 3 16 2 17 1 18
REMARK H PARENT
REMARK Flexibility Score: inf
ROOT
ATOM      1  C   UNL     1     148.343 137.661 138.001  1.00  0.00     0.000 C 
ENDROOT
BRANCH   1   2
ATOM      2  C   UNL     1     147.452 137.488 139.248  1.00  0.00     0.000 C 
BRANCH   2   3
ATOM      3  C   UNL     1     148.172 137.683 140.597  1.00  0.00     0.000 C 
BRANCH   3   4
ATOM      4  C   UNL     1     147.883 139.022 141.303  1.00  0.00     0.000 C 
BRANCH   4   5
ATOM      5  C   UNL     1     149.042 139.568 142.158  1.00  0.00     0.000 C 
BRANCH   5   6
ATOM      6  C   UNL     1     148.974 141.090 142.356  1.00  0.00     0.006 C 
BRANCH   6   7
ATOM      7  C   UNL     1     148.239 141.762 141.192  1.00  0.00     0.053 C 
BRANCH   7   8
ATOM      8  C   UNL     1     148.906 143.050 140.826  1.00  0.00     0.041 C 
ATOM      9  O   UNL     1     148.645 143.610 139.730  1.00  0.00    -0.550 OA
ATOM     10  O   UNL     1     149.852 143.609 141.677  1.00  0.00    -0.550 OA
ENDBRANCH   7   8
ENDBRANCH   6   7
ENDBRANCH   5   6
ENDBRANCH   4   5
ENDBRANCH   3   4
ENDBRANCH   2   3
ENDBRANCH   1   2
BRANCH   1  11
ATOM     11  C   UNL     1     149.633 138.473 138.223  1.00  0.00     0.000 C 
BRANCH  11  12
ATOM     12  C   UNL     1     149.444 139.977 137.967  1.00  0.00    -0.000 C 
BRANCH  12  13
ATOM     13  C   UNL     1     148.587 140.264 136.721  1.00  0.00    -0.000 C 
BRANCH  13  14
ATOM     14  C   UNL     1     147.515 141.353 136.943  1.00  0.00    -0.000 C 
BRANCH  14  15
ATOM     15  C   UNL     1     146.520 140.969 138.052  1.00  0.00    -0.000 C 
BRANCH  15  16
ATOM     16  C   UNL     1     145.312 140.178 137.507  1.00  0.00    -0.000 C 
BRANCH  16  17
ATOM     17  C   UNL     1     144.749 140.741 136.191  1.00  0.00    -0.003 C 
ATOM     18  C   UNL     1     143.239 140.966 136.236  1.00  0.00     0.004 C 
ENDBRANCH  16  17
ENDBRANCH  15  16
ENDBRANCH  14  15
ENDBRANCH  13  14
ENDBRANCH  12  13
ENDBRANCH  11  12
ENDBRANCH   1  11
TORSDOF 14
ENDMDL
MODEL 5
REMARK VINA RESULT:    -3.795      1.629      2.138
REMARK INTER + INTRA:          -9.230
REMARK INTER:                  -7.311
REMARK INTRA:                  -1.919
REMARK UNBOUND:                -2.329
REMARK SMILES CCCCCCCCCCCCCCCC(=O)[O-]
REMARK SMILES IDX 9 1 10 2 11 3 12 4 13 5 14 6 15 7 16 8 17 9 18 10 8 11 7 12
REMARK SMILES IDX 6 13 5 14 4 15 3 16 2 17 1 18
REMARK H PARENT
REMARK Flexibility Score: inf
ROOT
ATOM      1  C   UNL     1     150.028 138.761 138.546  1.00  0.00     0.000 C 
ENDROOT
BRANCH   1   2
ATOM      2  C   UNL     1     148.804 138.859 137.612  1.00  0.00     0.000 C 
BRANCH   2   3
ATOM      3  C   UNL     1     148.632 140.214 136.899  1.00  0.00     0.000 C 
BRANCH   3   4
ATOM      4  C   UNL     1     147.837 141.272 137.690  1.00  0.00     0.000 C 
BRANCH   4   5
ATOM      5  C   UNL     1     146.361 140.918 137.945  1.00  0.00     0.000 C 
BRANCH   5   6
ATOM      6  C   UNL     1     145.466 141.170 136.722  1.00  0.00     0.006 C 
BRANCH   6   7
ATOM      7  C   UNL     1     144.623 139.934 136.396  1.00  0.00     0.053 C 
BRANCH   7   8
ATOM      8  C   UNL     1     145.448 138.913 135.677  1.00  0.00     0.041 C 
ATOM      9  O   UNL     1     145.888 139.152 134.523  1.00  0.00    -0.550 OA
ATOM     10  O   UNL     1     145.690 137.677 136.264  1.00  0.00    -0.550 OA
ENDBRANCH   7   8
ENDBRANCH   6   7
ENDBRANCH   5   6
ENDBRANCH   4   5
ENDBRANCH   3   4
ENDBRANCH   2   3
ENDBRANCH   1   2
BRANCH   1  11
ATOM     11  C   UNL     1     149.795 137.982 139.854  1.00  0.00     0.000 C 
BRANCH  11  12
ATOM     12  C   UNL     1     148.319 137.959 140.281  1.00  0.00    -0.000 C 
BRANCH  12  13
ATOM     13  C   UNL     1     147.948 139.136 141.201  1.00  0.00    -0.000 C 
BRANCH  13  14
ATOM     14  C   UNL     1     149.132 139.667 142.038  1.00  0.00    -0.000 C 
BRANCH  14  15
ATOM     15  C   UNL     1     148.935 141.134 142.455  1.00  0.00    -0.000 C 
BRANCH  15  16
ATOM     16  C   UNL     1     147.819 141.829 141.646  1.00  0.00    -0.000 C 
BRANCH  16  17
ATOM     17  C   UNL     1     148.300 143.063 140.865  1.00  0.00    -0.003 C 
ATOM     18  C   UNL     1     149.615 143.630 141.395  1.00  0.00     0.004 C 
ENDBRANCH  16  17
ENDBRANCH  15  16
ENDBRANCH  14  15
ENDBRANCH  13  14
ENDBRANCH  12  13
ENDBRANCH  11  12
ENDBRANCH   1  11
TORSDOF 14
ENDMDL
MODEL 6
REMARK VINA RESULT:    -3.776      1.139      3.604
REMARK INTER + INTRA:          -9.196
REMARK INTER:                  -7.239
REMARK INTRA:                  -1.957
REMARK UNBOUND:                -2.329
REMARK SMILES CCCCCCCCCCCCCCCC(=O)[O-]
REMARK SMILES IDX 9 1 10 2 11 3 12 4 13 5 14 6 15 7 16 8 17 9 18 10 8 11 7 12
REMARK SMILES IDX 6 13 5 14 4 15 3 16 2 17 1 18
REMARK H PARENT
REMARK Flexibility Score: inf
ROOT
ATOM      1  C   UNL     1     148.884 142.488 141.574  1.00  0.00     0.000 C 
ENDROOT
BRANCH   1   2
ATOM      2  C   UNL     1     149.549 142.295 140.196  1.00  0.00     0.000 C 
BRANCH   2   3
ATOM      3  C   UNL     1     149.208 140.969 139.486  1.00  0.00     0.000 C 
BRANCH   3   4
ATOM      4  C   UNL     1     148.151 141.080 138.369  1.00  0.00     0.000 C 
BRANCH   4   5
ATOM      5  C   UNL     1     146.753 140.555 138.744  1.00  0.00     0.000 C 
BRANCH   5   6
ATOM      6  C   UNL     1     145.904 140.187 137.518  1.00  0.00     0.006 C 
BRANCH   6   7
ATOM      7  C   UNL     1     145.210 141.424 136.940  1.00  0.00     0.053 C 
BRANCH   7   8
ATOM      8  C   UNL     1     143.799 141.102 136.560  1.00  0.00     0.041 C 
ATOM      9  O   UNL     1     143.331 141.503 135.462  1.00  0.00    -0.550 OA
ATOM     10  O   UNL     1     142.985 140.399 137.439  1.00  0.00    -0.550 OA
ENDBRANCH   7   8
ENDBRANCH   6   7
ENDBRANCH   5   6
ENDBRANCH   4   5
ENDBRANCH   3   4
ENDBRANCH   2   3
ENDBRANCH   1   2
BRANCH   1  11
ATOM     11  C   UNL     1     148.704 141.201 142.401  1.00  0.00     0.000 C 
BRANCH  11  12
ATOM     12  C   UNL     1     147.230 140.793 142.558  1.00  0.00    -0.000 C 
BRANCH  12  13
ATOM     13  C   UNL     1     146.972 139.331 142.153  1.00  0.00    -0.000 C 
BRANCH  13  14
ATOM     14  C   UNL     1     148.261 138.504 141.961  1.00  0.00    -0.000 C 
BRANCH  14  15
ATOM     15  C   UNL     1     147.995 137.178 141.226  1.00  0.00    -0.000 C 
BRANCH  15  16
ATOM     16  C   UNL     1     147.953 137.356 139.693  1.00  0.00    -0.000 C 
BRANCH  16  17
ATOM     17  C   UNL     1     149.139 136.703 138.963  1.00  0.00    -0.003 C 
ATOM     18  C   UNL     1     149.589 137.489 137.733  1.00  0.00     0.004 C 
ENDBRANCH  16  17
ENDBRANCH  15  16
ENDBRANCH  14  15
ENDBRANCH  13  14
ENDBRANCH  12  13
ENDBRANCH  11  12
ENDBRANCH   1  11
TORSDOF 14
ENDMDL
MODEL 7
REMARK VINA RESULT:    -3.764      1.632      2.314
REMARK INTER + INTRA:          -9.174
REMARK INTER:                  -7.170
REMARK INTRA:                  -2.004
REMARK UNBOUND:                -2.329
REMARK SMILES CCCCCCCCCCCCCCCC(=O)[O-]
REMARK SMILES IDX 9 1 10 2 11 3 12 4 13 5 14 6 15 7 16 8 17 9 18 10 8 11 7 12
REMARK SMILES IDX 6 13 5 14 4 15 3 16 2 17 1 18
REMARK H PARENT
REMARK Flexibility Score: inf
ROOT
ATOM      1  C   UNL     1     149.141 139.622 138.070  1.00  0.00     0.000 C 
ENDROOT
BRANCH   1   2
ATOM      2  C   UNL     1     147.655 139.729 138.470  1.00  0.00     0.000 C 
BRANCH   2   3
ATOM      3  C   UNL     1     147.038 141.133 138.321  1.00  0.00     0.000 C 
BRANCH   3   4
ATOM      4  C   UNL     1     146.560 141.489 136.899  1.00  0.00     0.000 C 
BRANCH   4   5
ATOM      5  C   UNL     1     145.725 140.398 136.203  1.00  0.00     0.000 C 
BRANCH   5   6
ATOM      6  C   UNL     1     144.262 140.812 135.986  1.00  0.00     0.006 C 
BRANCH   6   7
ATOM      7  C   UNL     1     143.465 140.712 137.290  1.00  0.00     0.053 C 
BRANCH   7   8
ATOM      8  C   UNL     1     143.130 139.284 137.590  1.00  0.00     0.041 C 
ATOM      9  O   UNL     1     142.995 138.903 138.782  1.00  0.00    -0.550 OA
ATOM     10  O   UNL     1     143.016 138.365 136.555  1.00  0.00    -0.550 OA
ENDBRANCH   7   8
ENDBRANCH   6   7
ENDBRANCH   5   6
ENDBRANCH   4   5
ENDBRANCH   3   4
ENDBRANCH   2   3
ENDBRANCH   1   2
BRANCH   1  11
ATOM     11  C   UNL     1     150.123 139.436 139.242  1.00  0.00     0.000 C 
BRANCH  11  12
ATOM     12  C   UNL     1     149.665 138.364 140.243  1.00  0.00    -0.000 C 
BRANCH  12  13
ATOM     13  C   UNL     1     149.415 138.933 141.651  1.00  0.00    -0.000 C 
BRANCH  13  14
ATOM     14  C   UNL     1     147.919 139.094 141.998  1.00  0.00    -0.000 C 
BRANCH  14  15
ATOM     15  C   UNL     1     147.518 140.570 142.162  1.00  0.00    -0.000 C 
BRANCH  15  16
ATOM     16  C   UNL     1     148.743 141.505 142.246  1.00  0.00    -0.000 C 
BRANCH  16  17
ATOM     17  C   UNL     1     148.606 142.781 141.398  1.00  0.00    -0.003 C 
ATOM     18  C   UNL     1     149.753 142.965 140.407  1.00  0.00     0.004 C 
ENDBRANCH  16  17
ENDBRANCH  15  16
ENDBRANCH  14  15
ENDBRANCH  13  14
ENDBRANCH  12  13
ENDBRANCH  11  12
ENDBRANCH   1  11
TORSDOF 14
ENDMDL
MODEL 8
REMARK VINA RESULT:    -3.727      9.647     12.385
REMARK INTER + INTRA:          -9.106
REMARK INTER:                  -7.818
REMARK INTRA:                  -1.288
REMARK UNBOUND:                -2.329
REMARK SMILES CCCCCCCCCCCCCCCC(=O)[O-]
REMARK SMILES IDX 9 1 10 2 11 3 12 4 13 5 14 6 15 7 16 8 17 9 18 10 8 11 7 12
REMARK SMILES IDX 6 13 5 14 4 15 3 16 2 17 1 18
REMARK H PARENT
REMARK Flexibility Score: inf
ROOT
ATOM      1  C   UNL     1     146.675 147.448 131.260  1.00  0.00     0.000 C 
ENDROOT
BRANCH   1   2
ATOM      2  C   UNL     1     146.855 147.830 129.777  1.00  0.00     0.000 C 
BRANCH   2   3
ATOM      3  C   UNL     1     148.217 148.459 129.424  1.00  0.00     0.000 C 
BRANCH   3   4
ATOM      4  C   UNL     1     149.379 147.457 129.271  1.00  0.00     0.000 C 
BRANCH   4   5
ATOM      5  C   UNL     1     149.012 146.143 128.557  1.00  0.00     0.000 C 
BRANCH   5   6
ATOM      6  C   UNL     1     149.810 144.938 129.076  1.00  0.00     0.006 C 
BRANCH   6   7
ATOM      7  C   UNL     1     149.335 144.525 130.473  1.00  0.00     0.053 C 
BRANCH   7   8
ATOM      8  C   UNL     1     149.193 143.038 130.559  1.00  0.00     0.041 C 
ATOM      9  O   UNL     1     149.332 142.451 131.663  1.00  0.00    -0.550 OA
ATOM     10  O   UNL     1     148.954 142.295 129.410  1.00  0.00    -0.550 OA
ENDBRANCH   7   8
ENDBRANCH   6   7
ENDBRANCH   5   6
ENDBRANCH   4   5
ENDBRANCH   3   4
ENDBRANCH   2   3
ENDBRANCH   1   2
BRANCH   1  11
ATOM     11  C   UNL     1     145.596 148.246 132.017  1.00  0.00     0.000 C 
BRANCH  11  12
ATOM     12  C   UNL     1     145.067 149.446 131.215  1.00  0.00    -0.000 C 
BRANCH  12  13
ATOM     13  C   UNL     1     143.530 149.523 131.207  1.00  0.00    -0.000 C 
BRANCH  13  14
ATOM     14  C   UNL     1     142.844 148.317 131.885  1.00  0.00    -0.000 C 
BRANCH  14  15
ATOM     15  C   UNL     1     141.513 147.950 131.206  1.00  0.00    -0.000 C 
BRANCH  15  16
ATOM     16  C   UNL     1     141.721 147.323 129.811  1.00  0.00    -0.000 C 
BRANCH  16  17
ATOM     17  C   UNL     1     142.585 146.051 129.828  1.00  0.00    -0.003 C 
ATOM     18  C   UNL     1     142.546 145.285 128.508  1.00  0.00     0.004 C 
ENDBRANCH  16  17
ENDBRANCH  15  16
ENDBRANCH  14  15
ENDBRANCH  13  14
ENDBRANCH  12  13
ENDBRANCH  11  12
ENDBRANCH   1  11
TORSDOF 14
ENDMDL
MODEL 9
REMARK VINA RESULT:    -3.704      1.344      3.615
REMARK INTER + INTRA:          -9.064
REMARK INTER:                  -6.683
REMARK INTRA:                  -2.382
REMARK UNBOUND:                -2.329
REMARK SMILES CCCCCCCCCCCCCCCC(=O)[O-]
REMARK SMILES IDX 9 1 10 2 11 3 12 4 13 5 14 6 15 7 16 8 17 9 18 10 8 11 7 12
REMARK SMILES IDX 6 13 5 14 4 15 3 16 2 17 1 18
REMARK H PARENT
REMARK Flexibility Score: inf
ROOT
ATOM      1  C   UNL     1     147.722 141.354 141.872  1.00  0.00     0.000 C 
ENDROOT
BRANCH   1   2
ATOM      2  C   UNL     1     147.920 142.617 141.009  1.00  0.00     0.000 C 
BRANCH   2   3
ATOM      3  C   UNL     1     148.263 142.351 139.530  1.00  0.00     0.000 C 
BRANCH   3   4
ATOM      4  C   UNL     1     147.360 141.319 138.826  1.00  0.00     0.000 C 
BRANCH   4   5
ATOM      5  C   UNL     1     147.702 141.060 137.347  1.00  0.00     0.000 C 
BRANCH   5   6
ATOM      6  C   UNL     1     147.424 139.613 136.914  1.00  0.00     0.006 C 
BRANCH   6   7
ATOM      7  C   UNL     1     146.376 139.566 135.799  1.00  0.00     0.053 C 
BRANCH   7   8
ATOM      8  C   UNL     1     145.033 139.964 136.325  1.00  0.00     0.041 C 
ATOM      9  O   UNL     1     144.448 140.980 135.866  1.00  0.00    -0.550 OA
ATOM     10  O   UNL     1     144.449 139.241 137.358  1.00  0.00    -0.550 OA
ENDBRANCH   7   8
ENDBRANCH   6   7
ENDBRANCH   5   6
ENDBRANCH   4   5
ENDBRANCH   3   4
ENDBRANCH   2   3
ENDBRANCH   1   2
BRANCH   1  11
ATOM     11  C   UNL     1     148.998 140.814 142.546  1.00  0.00     0.000 C 
BRANCH  11  12
ATOM     12  C   UNL     1     149.272 139.339 142.212  1.00  0.00    -0.000 C 
BRANCH  12  13
ATOM     13  C   UNL     1     149.774 139.139 140.770  1.00  0.00    -0.000 C 
BRANCH  13  14
ATOM     14  C   UNL     1     148.984 138.073 139.980  1.00  0.00    -0.000 C 
BRANCH  14  15
ATOM     15  C   UNL     1     147.761 137.561 140.761  1.00  0.00    -0.000 C 
BRANCH  15  16
ATOM     16  C   UNL     1     146.429 137.992 140.112  1.00  0.00    -0.000 C 
BRANCH  16  17
ATOM     17  C   UNL     1     145.243 138.012 141.091  1.00  0.00    -0.003 C 
ATOM     18  C   UNL     1     145.652 138.377 142.516  1.00  0.00     0.004 C 
ENDBRANCH  16  17
ENDBRANCH  15  16
ENDBRANCH  14  15
ENDBRANCH  13  14
ENDBRANCH  12  13
ENDBRANCH  11  12
ENDBRANCH   1  11
TORSDOF 14
ENDMDL
