MODEL 1
REMARK VINA RESULT:    -5.950      0.000      0.000
REMARK INTER + INTRA:          -6.124
REMARK INTER:                  -6.124
REMARK INTRA:                   0.000
REMARK UNBOUND:                 0.000
REMARK SMILES O=c1ccc2ccc(O)cc2o1
REMARK SMILES IDX 6 1 7 2 8 3 10 4 11 5 5 6 4 7 3 8 2 9 1 10 12 11 9 12
REMARK H PARENT 9 13
REMARK Flexibility Score: inf
ROOT
ATOM      1  C   UNL     1       1.004   1.761  -0.041  1.00  0.00     0.016 A 
ATOM      2  C   UNL     1       0.312   2.005   1.150  1.00  0.00     0.047 A 
ATOM      3  C   UNL     1      -0.096   0.939   1.962  1.00  0.00     0.119 A 
ATOM      4  C   UNL     1       0.189  -0.380   1.580  1.00  0.00     0.094 A 
ATOM      5  C   UNL     1       0.881  -0.633   0.390  1.00  0.00     0.142 A 
ATOM      6  C   UNL     1       1.291   0.444  -0.426  1.00  0.00     0.018 A 
ATOM      7  C   UNL     1       1.980   0.160  -1.609  1.00  0.00     0.019 A 
ATOM      8  C   UNL     1       2.241  -1.167  -1.948  1.00  0.00     0.094 A 
ATOM      9  C   UNL     1       1.804  -2.184  -1.091  1.00  0.00     0.336 A 
ATOM     10  O   UNL     1       2.030  -3.388  -1.378  1.00  0.00    -0.246 OA
ATOM     11  O   UNL     1       1.150  -1.886   0.030  1.00  0.00    -0.423 OA
ENDROOT
BRANCH   3  12
ATOM     12  O   UNL     1      -0.783   1.201   3.144  1.00  0.00    -0.508 OA
ATOM     13  H   UNL     1      -1.285   0.472   3.637  1.00  0.00     0.293 HD
ENDBRANCH   3  12
TORSDOF 1
ENDMDL
MODEL 2
REMARK VINA RESULT:    -5.755      7.753      9.071
REMARK INTER + INTRA:          -5.923
REMARK INTER:                  -5.923
REMARK INTRA:                   0.000
REMARK UNBOUND:                 0.000
REMARK SMILES O=c1ccc2ccc(O)cc2o1
REMARK SMILES IDX 6 1 7 2 8 3 10 4 11 5 5 6 4 7 3 8 2 9 1 10 12 11 9 12
REMARK H PARENT 9 13
REMARK Flexibility Score: inf
ROOT
ATOM      1  C   UNL     1      -2.403   9.832   0.728  1.00  0.00     0.016 A 
ATOM      2  C   UNL     1      -3.635   9.314   0.315  1.00  0.00     0.047 A 
ATOM      3  C   UNL     1      -3.743   7.976  -0.081  1.00  0.00     0.119 A 
ATOM      4  C   UNL     1      -2.611   7.147  -0.064  1.00  0.00     0.094 A 
ATOM      5  C   UNL     1      -1.374   7.656   0.348  1.00  0.00     0.142 A 
ATOM      6  C   UNL     1      -1.269   9.007   0.746  1.00  0.00     0.018 A 
ATOM      7  C   UNL     1      -0.021   9.488   1.153  1.00  0.00     0.019 A 
ATOM      8  C   UNL     1       1.077   8.627   1.152  1.00  0.00     0.094 A 
ATOM      9  C   UNL     1       0.898   7.301   0.745  1.00  0.00     0.336 A 
ATOM     10  O   UNL     1       1.876   6.509   0.738  1.00  0.00    -0.246 OA
ATOM     11  O   UNL     1      -0.301   6.869   0.363  1.00  0.00    -0.423 OA
ENDROOT
BRANCH   3  12
ATOM     12  O   UNL     1      -4.978   7.478  -0.488  1.00  0.00    -0.508 OA
ATOM     13  H   UNL     1      -5.768   8.090  -0.653  1.00  0.00     0.293 HD
ENDBRANCH   3  12
TORSDOF 1
ENDMDL
MODEL 3
REMARK VINA RESULT:    -5.709      1.711      4.656
REMARK INTER + INTRA:          -5.876
REMARK INTER:                  -5.876
REMARK INTRA:                   0.000
REMARK UNBOUND:                 0.000
REMARK SMILES O=c1ccc2ccc(O)cc2o1
REMARK SMILES IDX 6 1 7 2 8 3 10 4 11 5 5 6 4 7 3 8 2 9 1 10 12 11 9 12
REMARK H PARENT 9 13
REMARK Flexibility Score: inf
ROOT
ATOM      1  C   UNL     1       1.547  -1.834  -0.395  1.00  0.00     0.016 A 
ATOM      2  C   UNL     1       2.099  -1.526  -1.643  1.00  0.00     0.047 A 
ATOM      3  C   UNL     1       2.063  -0.213  -2.128  1.00  0.00     0.119 A 
ATOM      4  C   UNL     1       1.470   0.801  -1.360  1.00  0.00     0.094 A 
ATOM      5  C   UNL     1       0.916   0.502  -0.111  1.00  0.00     0.142 A 
ATOM      6  C   UNL     1       0.954  -0.823   0.375  1.00  0.00     0.018 A 
ATOM      7  C   UNL     1       0.393  -1.091   1.627  1.00  0.00     0.019 A 
ATOM      8  C   UNL     1      -0.186  -0.051   2.355  1.00  0.00     0.094 A 
ATOM      9  C   UNL     1      -0.187   1.238   1.810  1.00  0.00     0.336 A 
ATOM     10  O   UNL     1      -0.703   2.189   2.452  1.00  0.00    -0.246 OA
ATOM     11  O   UNL     1       0.355   1.466   0.616  1.00  0.00    -0.423 OA
ENDROOT
BRANCH   3  12
ATOM     12  O   UNL     1       2.618   0.075  -3.373  1.00  0.00    -0.508 OA
ATOM     13  H   UNL     1       3.298  -0.539  -3.804  1.00  0.00     0.293 HD
ENDBRANCH   3  12
TORSDOF 1
ENDMDL
MODEL 4
REMARK VINA RESULT:    -5.670      8.719     10.025
REMARK INTER + INTRA:          -5.836
REMARK INTER:                  -5.836
REMARK INTRA:                   0.000
REMARK UNBOUND:                 0.000
REMARK SMILES O=c1ccc2ccc(O)cc2o1
REMARK SMILES IDX 6 1 7 2 8 3 10 4 11 5 5 6 4 7 3 8 2 9 1 10 12 11 9 12
REMARK H PARENT 9 13
REMARK Flexibility Score: inf
ROOT
ATOM      1  C   UNL     1      -0.504   7.100   0.421  1.00  0.00     0.016 A 
ATOM      2  C   UNL     1       0.559   7.866   0.910  1.00  0.00     0.047 A 
ATOM      3  C   UNL     1       0.347   9.185   1.328  1.00  0.00     0.119 A 
ATOM      4  C   UNL     1      -0.938   9.745   1.256  1.00  0.00     0.094 A 
ATOM      5  C   UNL     1      -2.008   8.985   0.769  1.00  0.00     0.142 A 
ATOM      6  C   UNL     1      -1.790   7.655   0.348  1.00  0.00     0.018 A 
ATOM      7  C   UNL     1      -2.878   6.921  -0.134  1.00  0.00     0.019 A 
ATOM      8  C   UNL     1      -4.137   7.519  -0.187  1.00  0.00     0.094 A 
ATOM      9  C   UNL     1      -4.278   8.842   0.247  1.00  0.00     0.336 A 
ATOM     10  O   UNL     1      -5.406   9.398   0.208  1.00  0.00    -0.246 OA
ATOM     11  O   UNL     1      -3.226   9.518   0.702  1.00  0.00    -0.423 OA
ENDROOT
BRANCH   3  12
ATOM     12  O   UNL     1       1.418   9.933   1.812  1.00  0.00    -0.508 OA
ATOM     13  H   UNL     1       1.842   9.731   2.710  1.00  0.00     0.293 HD
ENDBRANCH   3  12
TORSDOF 1
ENDMDL
MODEL 5
REMARK VINA RESULT:    -5.611      0.760      4.226
REMARK INTER + INTRA:          -5.775
REMARK INTER:                  -5.775
REMARK INTRA:                   0.000
REMARK UNBOUND:                 0.000
REMARK SMILES O=c1ccc2ccc(O)cc2o1
REMARK SMILES IDX 6 1 7 2 8 3 10 4 11 5 5 6 4 7 3 8 2 9 1 10 12 11 9 12
REMARK H PARENT 9 13
REMARK Flexibility Score: inf
ROOT
ATOM      1  C   UNL     1       1.857   0.280  -1.539  1.00  0.00     0.016 A 
ATOM      2  C   UNL     1       2.151  -1.044  -1.881  1.00  0.00     0.047 A 
ATOM      3  C   UNL     1       1.782  -2.093  -1.031  1.00  0.00     0.119 A 
ATOM      4  C   UNL     1       1.113  -1.818   0.172  1.00  0.00     0.094 A 
ATOM      5  C   UNL     1       0.814  -0.496   0.522  1.00  0.00     0.142 A 
ATOM      6  C   UNL     1       1.189   0.559  -0.338  1.00  0.00     0.018 A 
ATOM      7  C   UNL     1       0.877   1.869   0.039  1.00  0.00     0.019 A 
ATOM      8  C   UNL     1       0.212   2.095   1.244  1.00  0.00     0.094 A 
ATOM      9  C   UNL     1      -0.128   0.999   2.046  1.00  0.00     0.336 A 
ATOM     10  O   UNL     1      -0.729   1.182   3.136  1.00  0.00    -0.246 OA
ATOM     11  O   UNL     1       0.180  -0.238   1.663  1.00  0.00    -0.423 OA
ENDROOT
BRANCH   3  12
ATOM     12  O   UNL     1       2.082  -3.405  -1.389  1.00  0.00    -0.508 OA
ATOM     13  H   UNL     1       2.708  -3.615  -2.157  1.00  0.00     0.293 HD
ENDBRANCH   3  12
TORSDOF 1
ENDMDL
MODEL 6
REMARK VINA RESULT:    -5.597      8.632      9.725
REMARK INTER + INTRA:          -5.760
REMARK INTER:                  -5.760
REMARK INTRA:                   0.000
REMARK UNBOUND:                 0.000
REMARK SMILES O=c1ccc2ccc(O)cc2o1
REMARK SMILES IDX 6 1 7 2 8 3 10 4 11 5 5 6 4 7 3 8 2 9 1 10 12 11 9 12
REMARK H PARENT 9 13
REMARK Flexibility Score: inf
ROOT
ATOM      1  C   UNL     1      -2.249   6.750  -0.108  1.00  0.00     0.016 A 
ATOM      2  C   UNL     1      -3.541   7.249  -0.304  1.00  0.00     0.047 A 
ATOM      3  C   UNL     1      -3.839   8.583   0.002  1.00  0.00     0.119 A 
ATOM      4  C   UNL     1      -2.837   9.425   0.509  1.00  0.00     0.094 A 
ATOM      5  C   UNL     1      -1.542   8.934   0.708  1.00  0.00     0.142 A 
ATOM      6  C   UNL     1      -1.245   7.589   0.398  1.00  0.00     0.018 A 
ATOM      7  C   UNL     1       0.058   7.127   0.608  1.00  0.00     0.019 A 
ATOM      8  C   UNL     1       1.020   8.001   1.113  1.00  0.00     0.094 A 
ATOM      9  C   UNL     1       0.654   9.321   1.398  1.00  0.00     0.336 A 
ATOM     10  O   UNL     1       1.508  10.125   1.854  1.00  0.00    -0.246 OA
ATOM     11  O   UNL     1      -0.594   9.735   1.189  1.00  0.00    -0.423 OA
ENDROOT
BRANCH   3  12
ATOM     12  O   UNL     1      -5.131   9.062  -0.200  1.00  0.00    -0.508 OA
ATOM     13  H   UNL     1      -5.934   8.614   0.224  1.00  0.00     0.293 HD
ENDBRANCH   3  12
TORSDOF 1
ENDMDL
MODEL 7
REMARK VINA RESULT:    -5.459      1.644      2.350
REMARK INTER + INTRA:          -5.618
REMARK INTER:                  -5.618
REMARK INTRA:                   0.000
REMARK UNBOUND:                 0.000
REMARK SMILES O=c1ccc2ccc(O)cc2o1
REMARK SMILES IDX 6 1 7 2 8 3 10 4 11 5 5 6 4 7 3 8 2 9 1 10 12 11 9 12
REMARK H PARENT 9 13
REMARK Flexibility Score: inf
ROOT
ATOM      1  C   UNL     1       0.181  -1.209   1.239  1.00  0.00     0.016 A 
ATOM      2  C   UNL     1      -0.370  -0.231   2.072  1.00  0.00     0.047 A 
ATOM      3  C   UNL     1      -0.197   1.128   1.781  1.00  0.00     0.119 A 
ATOM      4  C   UNL     1       0.535   1.512   0.647  1.00  0.00     0.094 A 
ATOM      5  C   UNL     1       1.090   0.540  -0.194  1.00  0.00     0.142 A 
ATOM      6  C   UNL     1       0.913  -0.829   0.104  1.00  0.00     0.018 A 
ATOM      7  C   UNL     1       1.479  -1.777  -0.753  1.00  0.00     0.019 A 
ATOM      8  C   UNL     1       2.198  -1.348  -1.869  1.00  0.00     0.094 A 
ATOM      9  C   UNL     1       2.333   0.026  -2.101  1.00  0.00     0.336 A 
ATOM     10  O   UNL     1       2.977   0.433  -3.102  1.00  0.00    -0.246 OA
ATOM     11  O   UNL     1       1.783   0.907  -1.269  1.00  0.00    -0.423 OA
ENDROOT
BRANCH   3  12
ATOM     12  O   UNL     1      -0.753   2.088   2.622  1.00  0.00    -0.508 OA
ATOM     13  H   UNL     1      -0.353   3.014   2.707  1.00  0.00     0.293 HD
ENDBRANCH   3  12
TORSDOF 1
ENDMDL
MODEL 8
REMARK VINA RESULT:    -5.368      7.660      9.716
REMARK INTER + INTRA:          -5.525
REMARK INTER:                  -5.525
REMARK INTRA:                   0.000
REMARK UNBOUND:                 0.000
REMARK SMILES O=c1ccc2ccc(O)cc2o1
REMARK SMILES IDX 6 1 7 2 8 3 10 4 11 5 5 6 4 7 3 8 2 9 1 10 12 11 9 12
REMARK H PARENT 9 13
REMARK Flexibility Score: inf
ROOT
ATOM      1  C   UNL     1      -0.280   9.642   1.183  1.00  0.00     0.016 A 
ATOM      2  C   UNL     1       0.776   8.725   1.189  1.00  0.00     0.047 A 
ATOM      3  C   UNL     1       0.559   7.393   0.815  1.00  0.00     0.119 A 
ATOM      4  C   UNL     1      -0.725   6.974   0.433  1.00  0.00     0.094 A 
ATOM      5  C   UNL     1      -1.787   7.885   0.424  1.00  0.00     0.142 A 
ATOM      6  C   UNL     1      -1.564   9.227   0.802  1.00  0.00     0.018 A 
ATOM      7  C   UNL     1      -2.645  10.114   0.783  1.00  0.00     0.019 A 
ATOM      8  C   UNL     1      -3.903   9.652   0.396  1.00  0.00     0.094 A 
ATOM      9  C   UNL     1      -4.049   8.308   0.035  1.00  0.00     0.336 A 
ATOM     10  O   UNL     1      -5.176   7.872  -0.318  1.00  0.00    -0.246 OA
ATOM     11  O   UNL     1      -3.004   7.485   0.061  1.00  0.00    -0.423 OA
ENDROOT
BRANCH   3  12
ATOM     12  O   UNL     1       1.622   6.494   0.827  1.00  0.00    -0.508 OA
ATOM     13  H   UNL     1       1.484   5.507   0.645  1.00  0.00     0.293 HD
ENDBRANCH   3  12
TORSDOF 1
ENDMDL
MODEL 9
REMARK VINA RESULT:    -5.329      8.933     10.102
REMARK INTER + INTRA:          -5.485
REMARK INTER:                  -5.485
REMARK INTRA:                   0.000
REMARK UNBOUND:                 0.000
REMARK SMILES O=c1ccc2ccc(O)cc2o1
REMARK SMILES IDX 6 1 7 2 8 3 10 4 11 5 5 6 4 7 3 8 2 9 1 10 12 11 9 12
REMARK H PARENT 9 13
REMARK Flexibility Score: inf
ROOT
ATOM      1  C   UNL     1      -3.855  10.066   1.114  1.00  0.00     0.016 A 
ATOM      2  C   UNL     1      -4.877   9.448   0.386  1.00  0.00     0.047 A 
ATOM      3  C   UNL     1      -4.612   8.299  -0.370  1.00  0.00     0.119 A 
ATOM      4  C   UNL     1      -3.315   7.764  -0.399  1.00  0.00     0.094 A 
ATOM      5  C   UNL     1      -2.287   8.375   0.327  1.00  0.00     0.142 A 
ATOM      6  C   UNL     1      -2.558   9.534   1.088  1.00  0.00     0.018 A 
ATOM      7  C   UNL     1      -1.511  10.123   1.803  1.00  0.00     0.019 A 
ATOM      8  C   UNL     1      -0.238   9.555   1.745  1.00  0.00     0.094 A 
ATOM      9  C   UNL     1      -0.044   8.407   0.969  1.00  0.00     0.336 A 
ATOM     10  O   UNL     1       1.097   7.879   0.904  1.00  0.00    -0.246 OA
ATOM     11  O   UNL     1      -1.058   7.866   0.299  1.00  0.00    -0.423 OA
ENDROOT
BRANCH   3  12
ATOM     12  O   UNL     1      -5.642   7.697  -1.088  1.00  0.00    -0.508 OA
ATOM     13  H   UNL     1      -5.953   6.756  -0.881  1.00  0.00     0.293 HD
ENDBRANCH   3  12
TORSDOF 1
ENDMDL
