MODEL 1
REMARK VINA RESULT:    -6.689      0.000      0.000
REMARK INTER + INTRA:          -9.888
REMARK INTER:                  -8.840
REMARK INTRA:                  -1.048
REMARK UNBOUND:                -1.048
REMARK SMILES CC[C@@H](C=C[C@@H](C)[C@@H]1CC[C@@H]2[C@@H]3CC=C4C[C@@H](O)CC[C@@]4(C)[C@H]3CC[C@]21C)C(C)C
REMARK SMILES IDX 6 1 7 2 5 3 4 4 3 5 2 6 1 7 28 8 29 9 30 10 8 11 9 12 26 13
REMARK SMILES IDX 10 14 11 15 25 16 27 17 12 18 24 19 23 20 13 21 21 22 14 23
REMARK SMILES IDX 15 24 20 25 22 26 16 27 19 28 17 29 18 30
REMARK H PARENT 18 31
REMARK Flexibility Score: inf
ROOT
ATOM      1  C   UNL     1      16.131  21.857  51.736  1.00  0.00     0.012 C 
ATOM      2  C   UNL     1      16.799  20.664  52.439  1.00  0.00     0.012 C 
ENDROOT
BRANCH   1   3
ATOM      3  C   UNL     1      15.466  21.503  50.410  1.00  0.00    -0.028 C 
ATOM      4  C   UNL     1      15.626  20.336  49.754  1.00  0.00    -0.027 C 
BRANCH   4   5
ATOM      5  C   UNL     1      14.847  20.000  48.495  1.00  0.00     0.014 C 
BRANCH   5   6
ATOM      6  C   UNL     1      13.707  18.992  48.824  1.00  0.00     0.004 C 
ATOM      7  C   UNL     1      13.993  18.165  50.079  1.00  0.00     0.004 C 
ENDBRANCH   5   6
BRANCH   5   8
ATOM      8  C   UNL     1      15.804  19.500  47.364  1.00  0.00    -0.011 C 
ATOM      9  C   UNL     1      17.104  18.903  47.925  1.00  0.00     0.008 C 
ATOM     10  C   UNL     1      15.118  18.447  46.472  1.00  0.00     0.008 C 
ENDBRANCH   5   8
ENDBRANCH   4   5
ENDBRANCH   1   3
BRANCH   1  11
ATOM     11  C   UNL     1      17.037  23.135  51.728  1.00  0.00     0.002 C 
ATOM     12  C   UNL     1      18.512  22.873  52.141  1.00  0.00     0.005 C 
ATOM     13  C   UNL     1      16.622  24.416  52.523  1.00  0.00    -0.026 C 
ATOM     14  C   UNL     1      19.046  24.184  52.743  1.00  0.00     0.005 C 
ATOM     15  C   UNL     1      17.950  25.195  52.448  1.00  0.00    -0.001 C 
ATOM     16  C   UNL     1      15.495  25.279  51.851  1.00  0.00     0.007 C 
ATOM     17  C   UNL     1      16.235  24.032  53.980  1.00  0.00     0.012 C 
ATOM     18  C   UNL     1      17.971  26.601  53.113  1.00  0.00     0.000 C 
ATOM     19  C   UNL     1      15.750  26.816  51.881  1.00  0.00     0.005 C 
ATOM     20  C   UNL     1      16.562  27.250  53.129  1.00  0.00     0.003 C 
ATOM     21  C   UNL     1      18.561  26.701  54.521  1.00  0.00     0.031 C 
ATOM     22  C   UNL     1      16.659  28.797  53.405  1.00  0.00    -0.008 C 
ATOM     23  C   UNL     1      18.599  28.151  54.942  1.00  0.00    -0.027 C 
ATOM     24  C   UNL     1      17.764  29.100  54.441  1.00  0.00    -0.065 C 
ATOM     25  C   UNL     1      16.987  29.591  52.103  1.00  0.00     0.014 C 
ATOM     26  C   UNL     1      15.297  29.274  53.978  1.00  0.00     0.016 C 
ATOM     27  C   UNL     1      18.070  30.556  54.722  1.00  0.00     0.063 C 
ATOM     28  C   UNL     1      17.314  31.078  52.356  1.00  0.00     0.033 C 
ATOM     29  C   UNL     1      18.424  31.269  53.409  1.00  0.00     0.118 C 
BRANCH  29  30
ATOM     30  O   UNL     1      19.647  30.775  52.924  1.00  0.00    -0.393 OA
ATOM     31  H   UNL     1      19.935  30.060  53.549  1.00  0.00     0.210 HD
ENDBRANCH  29  30
ENDBRANCH   1  11
TORSDOF 6
ENDMDL
MODEL 2
REMARK VINA RESULT:    -6.637      1.746      2.894
REMARK INTER + INTRA:          -9.820
REMARK INTER:                  -8.886
REMARK INTRA:                  -0.934
REMARK UNBOUND:                -1.048
REMARK SMILES CC[C@@H](C=C[C@@H](C)[C@@H]1CC[C@@H]2[C@@H]3CC=C4C[C@@H](O)CC[C@@]4(C)[C@H]3CC[C@]21C)C(C)C
REMARK SMILES IDX 6 1 7 2 5 3 4 4 3 5 2 6 1 7 28 8 29 9 30 10 8 11 9 12 26 13
REMARK SMILES IDX 10 14 11 15 25 16 27 17 12 18 24 19 23 20 13 21 21 22 14 23
REMARK SMILES IDX 15 24 20 25 22 26 16 27 19 28 17 29 18 30
REMARK H PARENT 18 31
REMARK Flexibility Score: inf
ROOT
ATOM      1  C   UNL     1      14.946  20.562  49.702  1.00  0.00     0.012 C 
ATOM      2  C   UNL     1      15.263  19.276  50.484  1.00  0.00     0.012 C 
ENDROOT
BRANCH   1   3
ATOM      3  C   UNL     1      14.862  20.365  48.193  1.00  0.00    -0.028 C 
ATOM      4  C   UNL     1      15.294  19.272  47.531  1.00  0.00    -0.027 C 
BRANCH   4   5
ATOM      5  C   UNL     1      15.079  19.090  46.039  1.00  0.00     0.014 C 
BRANCH   5   6
ATOM      6  C   UNL     1      14.287  17.776  45.770  1.00  0.00     0.004 C 
ATOM      7  C   UNL     1      12.831  17.858  46.235  1.00  0.00     0.004 C 
ENDBRANCH   5   6
BRANCH   5   8
ATOM      8  C   UNL     1      16.437  19.159  45.267  1.00  0.00    -0.011 C 
ATOM      9  C   UNL     1      16.800  17.819  44.608  1.00  0.00     0.008 C 
ATOM     10  C   UNL     1      16.411  20.255  44.184  1.00  0.00     0.008 C 
ENDBRANCH   5   8
ENDBRANCH   4   5
ENDBRANCH   1   3
BRANCH   1  11
ATOM     11  C   UNL     1      15.796  21.786  50.188  1.00  0.00     0.002 C 
ATOM     12  C   UNL     1      16.789  21.456  51.337  1.00  0.00     0.005 C 
ATOM     13  C   UNL     1      15.104  23.117  50.627  1.00  0.00    -0.026 C 
ATOM     14  C   UNL     1      16.998  22.757  52.132  1.00  0.00     0.005 C 
ATOM     15  C   UNL     1      16.309  23.816  51.286  1.00  0.00    -0.001 C 
ATOM     16  C   UNL     1      14.585  24.016  49.449  1.00  0.00     0.007 C 
ATOM     17  C   UNL     1      13.963  22.810  51.639  1.00  0.00     0.012 C 
ATOM     18  C   UNL     1      16.061  25.243  51.854  1.00  0.00     0.000 C 
ATOM     19  C   UNL     1      14.887  25.536  49.611  1.00  0.00     0.005 C 
ATOM     20  C   UNL     1      14.918  25.971  51.100  1.00  0.00     0.003 C 
ATOM     21  C   UNL     1      15.797  25.363  53.357  1.00  0.00     0.031 C 
ATOM     22  C   UNL     1      14.954  27.519  51.383  1.00  0.00    -0.008 C 
ATOM     23  C   UNL     1      15.700  26.823  53.729  1.00  0.00    -0.027 C 
ATOM     24  C   UNL     1      15.337  27.798  52.853  1.00  0.00    -0.065 C 
ATOM     25  C   UNL     1      15.990  28.244  50.469  1.00  0.00     0.014 C 
ATOM     26  C   UNL     1      13.535  28.094  51.122  1.00  0.00     0.016 C 
ATOM     27  C   UNL     1      15.539  29.244  53.254  1.00  0.00     0.063 C 
ATOM     28  C   UNL     1      16.228  29.718  50.857  1.00  0.00     0.033 C 
ATOM     29  C   UNL     1      16.597  29.886  52.345  1.00  0.00     0.118 C 
BRANCH  29  30
ATOM     30  O   UNL     1      17.850  29.305  52.604  1.00  0.00    -0.393 OA
ATOM     31  H   UNL     1      17.685  28.353  52.829  1.00  0.00     0.210 HD
ENDBRANCH  29  30
ENDBRANCH   1  11
TORSDOF 6
ENDMDL
MODEL 3
REMARK VINA RESULT:    -6.581      2.304      4.023
REMARK INTER + INTRA:          -9.745
REMARK INTER:                  -8.706
REMARK INTRA:                  -1.039
REMARK UNBOUND:                -1.048
REMARK SMILES CC[C@@H](C=C[C@@H](C)[C@@H]1CC[C@@H]2[C@@H]3CC=C4C[C@@H](O)CC[C@@]4(C)[C@H]3CC[C@]21C)C(C)C
REMARK SMILES IDX 6 1 7 2 5 3 4 4 3 5 2 6 1 7 28 8 29 9 30 10 8 11 9 12 26 13
REMARK SMILES IDX 10 14 11 15 25 16 27 17 12 18 24 19 23 20 13 21 21 22 14 23
REMARK SMILES IDX 15 24 20 25 22 26 16 27 19 28 17 29 18 30
REMARK H PARENT 18 31
REMARK Flexibility Score: inf
ROOT
ATOM      1  C   UNL     1      14.140  20.606  48.408  1.00  0.00     0.012 C 
ATOM      2  C   UNL     1      14.211  19.238  49.107  1.00  0.00     0.012 C 
ENDROOT
BRANCH   1   3
ATOM      3  C   UNL     1      14.246  20.532  46.889  1.00  0.00    -0.028 C 
ATOM      4  C   UNL     1      15.162  19.809  46.214  1.00  0.00    -0.027 C 
BRANCH   4   5
ATOM      5  C   UNL     1      15.144  19.688  44.700  1.00  0.00     0.014 C 
BRANCH   5   6
ATOM      6  C   UNL     1      16.166  18.608  44.238  1.00  0.00     0.004 C 
ATOM      7  C   UNL     1      17.107  18.166  45.360  1.00  0.00     0.004 C 
ENDBRANCH   5   6
BRANCH   5   8
ATOM      8  C   UNL     1      15.373  21.080  44.026  1.00  0.00    -0.011 C 
ATOM      9  C   UNL     1      16.756  21.184  43.362  1.00  0.00     0.008 C 
ATOM     10  C   UNL     1      14.292  21.378  42.971  1.00  0.00     0.008 C 
ENDBRANCH   5   8
ENDBRANCH   4   5
ENDBRANCH   1   3
BRANCH   1  11
ATOM     11  C   UNL     1      15.035  21.686  49.106  1.00  0.00     0.002 C 
ATOM     12  C   UNL     1      15.815  21.164  50.344  1.00  0.00     0.005 C 
ATOM     13  C   UNL     1      14.430  23.053  49.563  1.00  0.00    -0.026 C 
ATOM     14  C   UNL     1      16.043  22.372  51.270  1.00  0.00     0.005 C 
ATOM     15  C   UNL     1      15.595  23.561  50.434  1.00  0.00    -0.001 C 
ATOM     16  C   UNL     1      14.179  24.088  48.409  1.00  0.00     0.007 C 
ATOM     17  C   UNL     1      13.131  22.809  50.384  1.00  0.00     0.012 C 
ATOM     18  C   UNL     1      15.419  24.962  51.086  1.00  0.00     0.000 C 
ATOM     19  C   UNL     1      14.611  25.548  48.741  1.00  0.00     0.005 C 
ATOM     20  C   UNL     1      14.476  25.869  50.252  1.00  0.00     0.003 C 
ATOM     21  C   UNL     1      14.959  25.004  52.545  1.00  0.00     0.031 C 
ATOM     22  C   UNL     1      14.632  27.379  50.671  1.00  0.00    -0.008 C 
ATOM     23  C   UNL     1      14.962  26.435  53.026  1.00  0.00    -0.027 C 
ATOM     24  C   UNL     1      14.830  27.506  52.197  1.00  0.00    -0.065 C 
ATOM     25  C   UNL     1      15.857  28.043  49.969  1.00  0.00     0.014 C 
ATOM     26  C   UNL     1      13.332  28.130  50.274  1.00  0.00     0.016 C 
ATOM     27  C   UNL     1      15.123  28.887  52.745  1.00  0.00     0.063 C 
ATOM     28  C   UNL     1      16.189  29.449  50.511  1.00  0.00     0.033 C 
ATOM     29  C   UNL     1      16.360  29.466  52.044  1.00  0.00     0.118 C 
BRANCH  29  30
ATOM     30  O   UNL     1      17.497  28.728  52.415  1.00  0.00    -0.393 OA
ATOM     31  H   UNL     1      18.217  29.385  52.600  1.00  0.00     0.210 HD
ENDBRANCH  29  30
ENDBRANCH   1  11
TORSDOF 6
ENDMDL
MODEL 4
REMARK VINA RESULT:    -6.558      2.422      3.191
REMARK INTER + INTRA:          -9.715
REMARK INTER:                  -8.379
REMARK INTRA:                  -1.337
REMARK UNBOUND:                -1.048
REMARK SMILES CC[C@@H](C=C[C@@H](C)[C@@H]1CC[C@@H]2[C@@H]3CC=C4C[C@@H](O)CC[C@@]4(C)[C@H]3CC[C@]21C)C(C)C
REMARK SMILES IDX 6 1 7 2 5 3 4 4 3 5 2 6 1 7 28 8 29 9 30 10 8 11 9 12 26 13
REMARK SMILES IDX 10 14 11 15 25 16 27 17 12 18 24 19 23 20 13 21 21 22 14 23
REMARK SMILES IDX 15 24 20 25 22 26 16 27 19 28 17 29 18 30
REMARK H PARENT 18 31
REMARK Flexibility Score: inf
ROOT
ATOM      1  C   UNL     1      14.831  22.591  50.763  1.00  0.00     0.012 C 
ATOM      2  C   UNL     1      15.351  21.146  50.837  1.00  0.00     0.012 C 
ENDROOT
BRANCH   1   3
ATOM      3  C   UNL     1      13.917  22.861  49.572  1.00  0.00    -0.028 C 
ATOM      4  C   UNL     1      14.099  23.843  48.666  1.00  0.00    -0.027 C 
BRANCH   4   5
ATOM      5  C   UNL     1      13.217  23.988  47.439  1.00  0.00     0.014 C 
BRANCH   5   6
ATOM      6  C   UNL     1      13.275  22.689  46.582  1.00  0.00     0.004 C 
ATOM      7  C   UNL     1      13.662  22.959  45.126  1.00  0.00     0.004 C 
ENDBRANCH   5   6
BRANCH   5   8
ATOM      8  C   UNL     1      13.589  25.275  46.633  1.00  0.00    -0.011 C 
ATOM      9  C   UNL     1      12.414  26.261  46.536  1.00  0.00     0.008 C 
ATOM     10  C   UNL     1      14.795  26.000  47.260  1.00  0.00     0.008 C 
ENDBRANCH   5   8
ENDBRANCH   4   5
ENDBRANCH   1   3
BRANCH   1  11
ATOM     11  C   UNL     1      15.957  23.651  51.016  1.00  0.00     0.002 C 
ATOM     12  C   UNL     1      17.277  23.055  51.579  1.00  0.00     0.005 C 
ATOM     13  C   UNL     1      15.684  24.915  51.893  1.00  0.00    -0.026 C 
ATOM     14  C   UNL     1      17.960  24.170  52.390  1.00  0.00     0.005 C 
ATOM     15  C   UNL     1      17.133  25.407  52.076  1.00  0.00    -0.001 C 
ATOM     16  C   UNL     1      14.855  26.048  51.187  1.00  0.00     0.007 C 
ATOM     17  C   UNL     1      15.021  24.494  53.236  1.00  0.00     0.012 C 
ATOM     18  C   UNL     1      17.327  26.715  52.895  1.00  0.00     0.000 C 
ATOM     19  C   UNL     1      15.394  27.490  51.425  1.00  0.00     0.005 C 
ATOM     20  C   UNL     1      16.082  27.638  52.807  1.00  0.00     0.003 C 
ATOM     21  C   UNL     1      17.712  26.569  54.369  1.00  0.00     0.031 C 
ATOM     22  C   UNL     1      16.433  29.101  53.269  1.00  0.00    -0.008 C 
ATOM     23  C   UNL     1      17.966  27.937  54.954  1.00  0.00    -0.027 C 
ATOM     24  C   UNL     1      17.411  29.078  54.464  1.00  0.00    -0.065 C 
ATOM     25  C   UNL     1      17.096  29.920  52.119  1.00  0.00     0.014 C 
ATOM     26  C   UNL     1      15.119  29.798  53.716  1.00  0.00     0.016 C 
ATOM     27  C   UNL     1      17.947  30.410  54.946  1.00  0.00     0.063 C 
ATOM     28  C   UNL     1      17.662  31.280  52.579  1.00  0.00     0.033 C 
ATOM     29  C   UNL     1      18.621  31.146  53.779  1.00  0.00     0.118 C 
BRANCH  29  30
ATOM     30  O   UNL     1      19.783  30.454  53.399  1.00  0.00    -0.393 OA
ATOM     31  H   UNL     1      20.019  30.768  52.487  1.00  0.00     0.210 HD
ENDBRANCH  29  30
ENDBRANCH   1  11
TORSDOF 6
ENDMDL
MODEL 5
REMARK VINA RESULT:    -6.338      1.091      1.709
REMARK INTER + INTRA:          -9.424
REMARK INTER:                  -8.092
REMARK INTRA:                  -1.332
REMARK UNBOUND:                -1.048
REMARK SMILES CC[C@@H](C=C[C@@H](C)[C@@H]1CC[C@@H]2[C@@H]3CC=C4C[C@@H](O)CC[C@@]4(C)[C@H]3CC[C@]21C)C(C)C
REMARK SMILES IDX 6 1 7 2 5 3 4 4 3 5 2 6 1 7 28 8 29 9 30 10 8 11 9 12 26 13
REMARK SMILES IDX 10 14 11 15 25 16 27 17 12 18 24 19 23 20 13 21 21 22 14 23
REMARK SMILES IDX 15 24 20 25 22 26 16 27 19 28 17 29 18 30
REMARK H PARENT 18 31
REMARK Flexibility Score: inf
ROOT
ATOM      1  C   UNL     1      16.533  21.596  52.780  1.00  0.00     0.012 C 
ATOM      2  C   UNL     1      17.436  20.451  53.268  1.00  0.00     0.012 C 
ENDROOT
BRANCH   1   3
ATOM      3  C   UNL     1      15.541  21.186  51.697  1.00  0.00    -0.028 C 
ATOM      4  C   UNL     1      15.481  21.724  50.462  1.00  0.00    -0.027 C 
BRANCH   4   5
ATOM      5  C   UNL     1      14.544  21.193  49.391  1.00  0.00     0.014 C 
BRANCH   5   6
ATOM      6  C   UNL     1      15.344  20.363  48.345  1.00  0.00     0.004 C 
ATOM      7  C   UNL     1      15.445  18.882  48.718  1.00  0.00     0.004 C 
ENDBRANCH   5   6
BRANCH   5   8
ATOM      8  C   UNL     1      13.714  22.354  48.751  1.00  0.00    -0.011 C 
ATOM      9  C   UNL     1      14.342  23.731  49.016  1.00  0.00     0.008 C 
ATOM     10  C   UNL     1      13.560  22.162  47.230  1.00  0.00     0.008 C 
ENDBRANCH   5   8
ENDBRANCH   4   5
ENDBRANCH   1   3
BRANCH   1  11
ATOM     11  C   UNL     1      17.330  22.919  52.514  1.00  0.00     0.002 C 
ATOM     12  C   UNL     1      18.863  22.794  52.733  1.00  0.00     0.005 C 
ATOM     13  C   UNL     1      16.932  24.251  53.229  1.00  0.00    -0.026 C 
ATOM     14  C   UNL     1      19.374  24.193  53.119  1.00  0.00     0.005 C 
ATOM     15  C   UNL     1      18.174  25.096  52.886  1.00  0.00    -0.001 C 
ATOM     16  C   UNL     1      15.661  24.965  52.645  1.00  0.00     0.007 C 
ATOM     17  C   UNL     1      16.779  24.005  54.758  1.00  0.00     0.012 C 
ATOM     18  C   UNL     1      18.179  26.565  53.398  1.00  0.00     0.000 C 
ATOM     19  C   UNL     1      15.801  26.509  52.485  1.00  0.00     0.005 C 
ATOM     20  C   UNL     1      16.741  27.126  53.553  1.00  0.00     0.003 C 
ATOM     21  C   UNL     1      18.948  26.855  54.689  1.00  0.00     0.031 C 
ATOM     22  C   UNL     1      16.757  28.696  53.657  1.00  0.00    -0.008 C 
ATOM     23  C   UNL     1      18.934  28.341  54.954  1.00  0.00    -0.027 C 
ATOM     24  C   UNL     1      17.968  29.177  54.488  1.00  0.00    -0.065 C 
ATOM     25  C   UNL     1      16.843  29.362  52.249  1.00  0.00     0.014 C 
ATOM     26  C   UNL     1      15.454  29.149  54.371  1.00  0.00     0.016 C 
ATOM     27  C   UNL     1      18.198  30.671  54.575  1.00  0.00     0.063 C 
ATOM     28  C   UNL     1      17.087  30.885  52.303  1.00  0.00     0.033 C 
ATOM     29  C   UNL     1      18.314  31.257  53.161  1.00  0.00     0.118 C 
BRANCH  29  30
ATOM     30  O   UNL     1      19.492  30.788  52.555  1.00  0.00    -0.393 OA
ATOM     31  H   UNL     1      20.094  30.495  53.288  1.00  0.00     0.210 HD
ENDBRANCH  29  30
ENDBRANCH   1  11
TORSDOF 6
ENDMDL
MODEL 6
REMARK VINA RESULT:    -6.302      2.989      9.733
REMARK INTER + INTRA:          -9.377
REMARK INTER:                  -8.494
REMARK INTRA:                  -0.883
REMARK UNBOUND:                -1.048
REMARK SMILES CC[C@@H](C=C[C@@H](C)[C@@H]1CC[C@@H]2[C@@H]3CC=C4C[C@@H](O)CC[C@@]4(C)[C@H]3CC[C@]21C)C(C)C
REMARK SMILES IDX 6 1 7 2 5 3 4 4 3 5 2 6 1 7 28 8 29 9 30 10 8 11 9 12 26 13
REMARK SMILES IDX 10 14 11 15 25 16 27 17 12 18 24 19 23 20 13 21 21 22 14 23
REMARK SMILES IDX 15 24 20 25 22 26 16 27 19 28 17 29 18 30
REMARK H PARENT 18 31
REMARK Flexibility Score: inf
ROOT
ATOM      1  C   UNL     1      15.420  27.157  51.880  1.00  0.00     0.012 C 
ATOM      2  C   UNL     1      14.259  28.164  51.837  1.00  0.00     0.012 C 
ENDROOT
BRANCH   1   3
ATOM      3  C   UNL     1      16.765  27.777  52.244  1.00  0.00    -0.028 C 
ATOM      4  C   UNL     1      16.989  28.560  53.318  1.00  0.00    -0.027 C 
BRANCH   4   5
ATOM      5  C   UNL     1      18.378  29.053  53.687  1.00  0.00     0.014 C 
BRANCH   5   6
ATOM      6  C   UNL     1      18.869  28.347  54.984  1.00  0.00     0.004 C 
ATOM      7  C   UNL     1      19.644  27.059  54.699  1.00  0.00     0.004 C 
ENDBRANCH   5   6
BRANCH   5   8
ATOM      8  C   UNL     1      18.407  30.614  53.785  1.00  0.00    -0.011 C 
ATOM      9  C   UNL     1      19.758  31.199  53.344  1.00  0.00     0.008 C 
ATOM     10  C   UNL     1      17.289  31.251  52.938  1.00  0.00     0.008 C 
ENDBRANCH   5   8
ENDBRANCH   4   5
ENDBRANCH   1   3
BRANCH   1  11
ATOM     11  C   UNL     1      15.423  26.188  50.649  1.00  0.00     0.002 C 
ATOM     12  C   UNL     1      14.534  26.660  49.465  1.00  0.00     0.005 C 
ATOM     13  C   UNL     1      15.084  24.672  50.822  1.00  0.00    -0.026 C 
ATOM     14  C   UNL     1      14.089  25.396  48.709  1.00  0.00     0.005 C 
ATOM     15  C   UNL     1      14.913  24.285  49.340  1.00  0.00    -0.001 C 
ATOM     16  C   UNL     1      16.234  23.800  51.440  1.00  0.00     0.007 C 
ATOM     17  C   UNL     1      13.767  24.514  51.637  1.00  0.00     0.012 C 
ATOM     18  C   UNL     1      14.588  22.794  49.043  1.00  0.00     0.000 C 
ATOM     19  C   UNL     1      16.455  22.426  50.738  1.00  0.00     0.005 C 
ATOM     20  C   UNL     1      15.141  21.853  50.146  1.00  0.00     0.003 C 
ATOM     21  C   UNL     1      13.122  22.432  48.795  1.00  0.00     0.031 C 
ATOM     22  C   UNL     1      15.183  20.362  49.645  1.00  0.00    -0.008 C 
ATOM     23  C   UNL     1      13.027  20.975  48.411  1.00  0.00    -0.027 C 
ATOM     24  C   UNL     1      13.948  20.042  48.773  1.00  0.00    -0.065 C 
ATOM     25  C   UNL     1      16.460  20.080  48.794  1.00  0.00     0.014 C 
ATOM     26  C   UNL     1      15.168  19.431  50.888  1.00  0.00     0.016 C 
ATOM     27  C   UNL     1      13.903  18.682  48.108  1.00  0.00     0.063 C 
ATOM     28  C   UNL     1      16.442  18.705  48.093  1.00  0.00     0.033 C 
ATOM     29  C   UNL     1      15.165  18.485  47.256  1.00  0.00     0.118 C 
BRANCH  29  30
ATOM     30  O   UNL     1      15.138  19.373  46.167  1.00  0.00    -0.393 OA
ATOM     31  H   UNL     1      14.300  19.189  45.667  1.00  0.00     0.210 HD
ENDBRANCH  29  30
ENDBRANCH   1  11
TORSDOF 6
ENDMDL
MODEL 7
REMARK VINA RESULT:    -6.154      8.630     12.644
REMARK INTER + INTRA:          -9.181
REMARK INTER:                  -8.226
REMARK INTRA:                  -0.955
REMARK UNBOUND:                -1.048
REMARK SMILES CC[C@@H](C=C[C@@H](C)[C@@H]1CC[C@@H]2[C@@H]3CC=C4C[C@@H](O)CC[C@@]4(C)[C@H]3CC[C@]21C)C(C)C
REMARK SMILES IDX 6 1 7 2 5 3 4 4 3 5 2 6 1 7 28 8 29 9 30 10 8 11 9 12 26 13
REMARK SMILES IDX 10 14 11 15 25 16 27 17 12 18 24 19 23 20 13 21 21 22 14 23
REMARK SMILES IDX 15 24 20 25 22 26 16 27 19 28 17 29 18 30
REMARK H PARENT 18 31
REMARK Flexibility Score: inf
ROOT
ATOM      1  C   UNL     1      14.986  25.103  40.626  1.00  0.00     0.012 C 
ATOM      2  C   UNL     1      14.113  25.933  39.670  1.00  0.00     0.012 C 
ENDROOT
BRANCH   1   3
ATOM      3  C   UNL     1      16.449  25.013  40.208  1.00  0.00    -0.028 C 
ATOM      4  C   UNL     1      16.887  24.963  38.934  1.00  0.00    -0.027 C 
BRANCH   4   5
ATOM      5  C   UNL     1      18.364  24.988  38.582  1.00  0.00     0.014 C 
BRANCH   5   6
ATOM      6  C   UNL     1      18.628  26.033  37.458  1.00  0.00     0.004 C 
ATOM      7  C   UNL     1      19.560  27.161  37.906  1.00  0.00     0.004 C 
ENDBRANCH   5   6
BRANCH   5   8
ATOM      8  C   UNL     1      18.877  23.555  38.224  1.00  0.00    -0.011 C 
ATOM      9  C   UNL     1      19.380  23.463  36.775  1.00  0.00     0.008 C 
ATOM     10  C   UNL     1      20.008  23.110  39.171  1.00  0.00     0.008 C 
ENDBRANCH   5   8
ENDBRANCH   4   5
ENDBRANCH   1   3
BRANCH   1  11
ATOM     11  C   UNL     1      14.307  23.753  41.041  1.00  0.00     0.002 C 
ATOM     12  C   UNL     1      12.794  23.668  40.697  1.00  0.00     0.005 C 
ATOM     13  C   UNL     1      14.414  23.221  42.506  1.00  0.00    -0.026 C 
ATOM     14  C   UNL     1      12.159  22.703  41.713  1.00  0.00     0.005 C 
ATOM     15  C   UNL     1      13.352  22.106  42.443  1.00  0.00    -0.001 C 
ATOM     16  C   UNL     1      15.796  22.577  42.881  1.00  0.00     0.007 C 
ATOM     17  C   UNL     1      14.036  24.350  43.508  1.00  0.00     0.012 C 
ATOM     18  C   UNL     1      13.147  21.264  43.735  1.00  0.00     0.000 C 
ATOM     19  C   UNL     1      15.695  21.251  43.694  1.00  0.00     0.005 C 
ATOM     20  C   UNL     1      14.435  21.213  44.598  1.00  0.00     0.003 C 
ATOM     21  C   UNL     1      11.977  21.648  44.643  1.00  0.00     0.031 C 
ATOM     22  C   UNL     1      14.359  20.048  45.654  1.00  0.00    -0.008 C 
ATOM     23  C   UNL     1      11.875  20.651  45.772  1.00  0.00    -0.027 C 
ATOM     24  C   UNL     1      12.929  19.919  46.225  1.00  0.00    -0.065 C 
ATOM     25  C   UNL     1      14.751  18.677  45.023  1.00  0.00     0.014 C 
ATOM     26  C   UNL     1      15.329  20.384  46.819  1.00  0.00     0.016 C 
ATOM     27  C   UNL     1      12.659  18.761  47.161  1.00  0.00     0.063 C 
ATOM     28  C   UNL     1      14.479  17.472  45.949  1.00  0.00     0.033 C 
ATOM     29  C   UNL     1      13.027  17.442  46.467  1.00  0.00     0.118 C 
BRANCH  29  30
ATOM     30  O   UNL     1      12.136  17.208  45.406  1.00  0.00    -0.393 OA
ATOM     31  H   UNL     1      11.972  18.084  44.969  1.00  0.00     0.210 HD
ENDBRANCH  29  30
ENDBRANCH   1  11
TORSDOF 6
ENDMDL
MODEL 8
REMARK VINA RESULT:    -5.988      3.875     10.311
REMARK INTER + INTRA:          -8.962
REMARK INTER:                  -7.967
REMARK INTRA:                  -0.995
REMARK UNBOUND:                -1.048
REMARK SMILES CC[C@@H](C=C[C@@H](C)[C@@H]1CC[C@@H]2[C@@H]3CC=C4C[C@@H](O)CC[C@@]4(C)[C@H]3CC[C@]21C)C(C)C
REMARK SMILES IDX 6 1 7 2 5 3 4 4 3 5 2 6 1 7 28 8 29 9 30 10 8 11 9 12 26 13
REMARK SMILES IDX 10 14 11 15 25 16 27 17 12 18 24 19 23 20 13 21 21 22 14 23
REMARK SMILES IDX 15 24 20 25 22 26 16 27 19 28 17 29 18 30
REMARK H PARENT 18 31
REMARK Flexibility Score: inf
ROOT
ATOM      1  C   UNL     1      13.990  27.323  49.799  1.00  0.00     0.012 C 
ATOM      2  C   UNL     1      13.377  28.600  49.201  1.00  0.00     0.012 C 
ENDROOT
BRANCH   1   3
ATOM      3  C   UNL     1      15.071  27.584  50.843  1.00  0.00    -0.028 C 
ATOM      4  C   UNL     1      15.741  28.745  50.986  1.00  0.00    -0.027 C 
BRANCH   4   5
ATOM      5  C   UNL     1      16.726  28.979  52.119  1.00  0.00     0.014 C 
BRANCH   5   6
ATOM      6  C   UNL     1      16.694  27.780  53.111  1.00  0.00     0.004 C 
ATOM      7  C   UNL     1      18.085  27.206  53.389  1.00  0.00     0.004 C 
ENDBRANCH   5   6
BRANCH   5   8
ATOM      8  C   UNL     1      16.464  30.357  52.809  1.00  0.00    -0.011 C 
ATOM      9  C   UNL     1      15.867  30.197  54.217  1.00  0.00     0.008 C 
ATOM     10  C   UNL     1      17.756  31.190  52.909  1.00  0.00     0.008 C 
ENDBRANCH   5   8
ENDBRANCH   4   5
ENDBRANCH   1   3
BRANCH   1  11
ATOM     11  C   UNL     1      14.337  26.254  48.707  1.00  0.00     0.002 C 
ATOM     12  C   UNL     1      14.032  26.707  47.252  1.00  0.00     0.005 C 
ATOM     13  C   UNL     1      13.768  24.801  48.800  1.00  0.00    -0.026 C 
ATOM     14  C   UNL     1      13.751  25.432  46.438  1.00  0.00     0.005 C 
ATOM     15  C   UNL     1      14.125  24.304  47.386  1.00  0.00    -0.001 C 
ATOM     16  C   UNL     1      14.477  23.875  49.852  1.00  0.00     0.007 C 
ATOM     17  C   UNL     1      12.231  24.850  49.047  1.00  0.00     0.012 C 
ATOM     18  C   UNL     1      13.750  22.832  47.050  1.00  0.00     0.000 C 
ATOM     19  C   UNL     1      14.771  22.429  49.350  1.00  0.00     0.005 C 
ATOM     20  C   UNL     1      13.718  21.942  48.320  1.00  0.00     0.003 C 
ATOM     21  C   UNL     1      12.455  22.600  46.269  1.00  0.00     0.031 C 
ATOM     22  C   UNL     1      13.758  20.415  47.939  1.00  0.00    -0.008 C 
ATOM     23  C   UNL     1      12.328  21.131  45.941  1.00  0.00    -0.027 C 
ATOM     24  C   UNL     1      12.916  20.146  46.671  1.00  0.00    -0.065 C 
ATOM     25  C   UNL     1      15.215  19.933  47.662  1.00  0.00     0.014 C 
ATOM     26  C   UNL     1      13.154  19.605  49.117  1.00  0.00     0.016 C 
ATOM     27  C   UNL     1      12.955  18.745  46.099  1.00  0.00     0.063 C 
ATOM     28  C   UNL     1      15.289  18.510  47.069  1.00  0.00     0.033 C 
ATOM     29  C   UNL     1      14.410  18.347  45.812  1.00  0.00     0.118 C 
BRANCH  29  30
ATOM     30  O   UNL     1      14.911  19.133  44.761  1.00  0.00    -0.393 OA
ATOM     31  H   UNL     1      14.499  18.791  43.925  1.00  0.00     0.210 HD
ENDBRANCH  29  30
ENDBRANCH   1  11
TORSDOF 6
ENDMDL
MODEL 9
REMARK VINA RESULT:    -5.953      3.558      5.316
REMARK INTER + INTRA:          -8.915
REMARK INTER:                  -7.785
REMARK INTRA:                  -1.130
REMARK UNBOUND:                -1.048
REMARK SMILES CC[C@@H](C=C[C@@H](C)[C@@H]1CC[C@@H]2[C@@H]3CC=C4C[C@@H](O)CC[C@@]4(C)[C@H]3CC[C@]21C)C(C)C
REMARK SMILES IDX 6 1 7 2 5 3 4 4 3 5 2 6 1 7 28 8 29 9 30 10 8 11 9 12 26 13
REMARK SMILES IDX 10 14 11 15 25 16 27 17 12 18 24 19 23 20 13 21 21 22 14 23
REMARK SMILES IDX 15 24 20 25 22 26 16 27 19 28 17 29 18 30
REMARK H PARENT 18 31
REMARK Flexibility Score: inf
ROOT
ATOM      1  C   UNL     1      12.856  24.794  45.766  1.00  0.00     0.012 C 
ATOM      2  C   UNL     1      11.897  25.291  44.672  1.00  0.00     0.012 C 
ENDROOT
BRANCH   1   3
ATOM      3  C   UNL     1      12.857  23.280  45.949  1.00  0.00    -0.028 C 
ATOM      4  C   UNL     1      13.710  22.430  45.342  1.00  0.00    -0.027 C 
BRANCH   4   5
ATOM      5  C   UNL     1      13.733  20.944  45.654  1.00  0.00     0.014 C 
BRANCH   5   6
ATOM      6  C   UNL     1      14.414  20.697  47.032  1.00  0.00     0.004 C 
ATOM      7  C   UNL     1      13.407  20.386  48.142  1.00  0.00     0.004 C 
ENDBRANCH   5   6
BRANCH   5   8
ATOM      8  C   UNL     1      14.393  20.140  44.487  1.00  0.00    -0.011 C 
ATOM      9  C   UNL     1      15.293  21.024  43.609  1.00  0.00     0.008 C 
ATOM     10  C   UNL     1      15.226  18.958  45.020  1.00  0.00     0.008 C 
ENDBRANCH   5   8
ENDBRANCH   4   5
ENDBRANCH   1   3
BRANCH   1  11
ATOM     11  C   UNL     1      12.762  25.643  47.080  1.00  0.00     0.002 C 
ATOM     12  C   UNL     1      12.267  27.100  46.863  1.00  0.00     0.005 C 
ATOM     13  C   UNL     1      13.991  25.777  48.036  1.00  0.00    -0.026 C 
ATOM     14  C   UNL     1      12.866  27.948  47.998  1.00  0.00     0.005 C 
ATOM     15  C   UNL     1      13.482  26.921  48.935  1.00  0.00    -0.001 C 
ATOM     16  C   UNL     1      14.275  24.521  48.935  1.00  0.00     0.007 C 
ATOM     17  C   UNL     1      15.255  26.175  47.220  1.00  0.00     0.012 C 
ATOM     18  C   UNL     1      14.421  27.369  50.091  1.00  0.00     0.000 C 
ATOM     19  C   UNL     1      14.619  24.849  50.419  1.00  0.00     0.005 C 
ATOM     20  C   UNL     1      15.342  26.214  50.564  1.00  0.00     0.003 C 
ATOM     21  C   UNL     1      15.288  28.606  49.851  1.00  0.00     0.031 C 
ATOM     22  C   UNL     1      15.969  26.535  51.972  1.00  0.00    -0.008 C 
ATOM     23  C   UNL     1      16.034  28.946  51.119  1.00  0.00    -0.027 C 
ATOM     24  C   UNL     1      16.333  28.032  52.081  1.00  0.00    -0.065 C 
ATOM     25  C   UNL     1      14.981  26.192  53.130  1.00  0.00     0.014 C 
ATOM     26  C   UNL     1      17.267  25.696  52.128  1.00  0.00     0.016 C 
ATOM     27  C   UNL     1      16.830  28.528  53.422  1.00  0.00     0.063 C 
ATOM     28  C   UNL     1      15.454  26.693  54.511  1.00  0.00     0.033 C 
ATOM     29  C   UNL     1      15.796  28.197  54.508  1.00  0.00     0.118 C 
BRANCH  29  30
ATOM     30  O   UNL     1      14.636  28.961  54.297  1.00  0.00    -0.393 OA
ATOM     31  H   UNL     1      13.864  28.347  54.409  1.00  0.00     0.210 HD
ENDBRANCH  29  30
ENDBRANCH   1  11
TORSDOF 6
ENDMDL
