MODEL 1
REMARK VINA RESULT:    27.595      0.000      0.000
REMARK INTER + INTRA:          39.119
REMARK INTER:                  38.081
REMARK INTRA:                   1.038
REMARK UNBOUND:                 1.038
REMARK SMILES CC[C@H](CC[C@H](C)[C@@H]1CC[C@H]2[C@H]3CC=C4C[C@H](O)CC[C@]4(C)[C@H]3CC[C@]21C)C(C)C
REMARK SMILES IDX 5 1 4 2 3 3 2 4 1 5 28 6 29 7 30 8 6 9 7 10 8 11 9 12 26 13
REMARK SMILES IDX 10 14 11 15 25 16 27 17 12 18 24 19 23 20 13 21 21 22 14 23
REMARK SMILES IDX 15 24 20 25 22 26 16 27 19 28 17 29 18 30
REMARK H PARENT 18 31
REMARK Flexibility Score: inf
ROOT
ATOM      1  C   UNL     1     -23.193 -15.148 -19.406  1.00  0.00     0.004 C 
ENDROOT
BRANCH   1   2
ATOM      2  C   UNL     1     -23.539 -14.234 -20.604  1.00  0.00     0.004 C 
BRANCH   2   3
ATOM      3  C   UNL     1     -22.890 -14.624 -21.973  1.00  0.00    -0.009 C 
BRANCH   3   4
ATOM      4  C   UNL     1     -21.334 -14.638 -21.786  1.00  0.00     0.000 C 
ATOM      5  C   UNL     1     -20.562 -14.449 -23.096  1.00  0.00     0.004 C 
ENDBRANCH   3   4
BRANCH   3   6
ATOM      6  C   UNL     1     -23.435 -15.996 -22.531  1.00  0.00    -0.014 C 
ATOM      7  C   UNL     1     -24.507 -16.642 -21.623  1.00  0.00     0.007 C 
ATOM      8  C   UNL     1     -22.317 -17.040 -22.743  1.00  0.00     0.007 C 
ENDBRANCH   3   6
ENDBRANCH   2   3
ENDBRANCH   1   2
BRANCH   1   9
ATOM      9  C   UNL     1     -23.521 -14.519 -18.018  1.00  0.00    -0.011 C 
ATOM     10  C   UNL     1     -22.229 -13.926 -17.408  1.00  0.00     0.008 C 
BRANCH   9  11
ATOM     11  C   UNL     1     -24.167 -15.580 -17.045  1.00  0.00    -0.002 C 
ATOM     12  C   UNL     1     -25.696 -15.615 -17.131  1.00  0.00     0.005 C 
ATOM     13  C   UNL     1     -23.865 -15.482 -15.495  1.00  0.00    -0.026 C 
ATOM     14  C   UNL     1     -26.132 -16.420 -15.928  1.00  0.00     0.005 C 
ATOM     15  C   UNL     1     -25.187 -15.982 -14.808  1.00  0.00    -0.001 C 
ATOM     16  C   UNL     1     -22.653 -16.381 -15.107  1.00  0.00     0.007 C 
ATOM     17  C   UNL     1     -23.592 -14.018 -15.051  1.00  0.00     0.012 C 
ATOM     18  C   UNL     1     -25.033 -17.001 -13.631  1.00  0.00     0.000 C 
ATOM     19  C   UNL     1     -22.506 -16.686 -13.600  1.00  0.00     0.005 C 
ATOM     20  C   UNL     1     -23.817 -16.622 -12.760  1.00  0.00     0.003 C 
ATOM     21  C   UNL     1     -24.963 -18.491 -14.023  1.00  0.00     0.031 C 
ATOM     22  C   UNL     1     -23.769 -17.478 -11.434  1.00  0.00    -0.008 C 
ATOM     23  C   UNL     1     -24.620 -19.384 -12.863  1.00  0.00    -0.027 C 
ATOM     24  C   UNL     1     -24.073 -18.953 -11.703  1.00  0.00    -0.065 C 
ATOM     25  C   UNL     1     -24.824 -16.945 -10.396  1.00  0.00     0.014 C 
ATOM     26  C   UNL     1     -22.360 -17.363 -10.780  1.00  0.00     0.016 C 
ATOM     27  C   UNL     1     -24.047 -19.899 -10.517  1.00  0.00     0.063 C 
ATOM     28  C   UNL     1     -25.573 -18.046  -9.600  1.00  0.00     0.033 C 
ATOM     29  C   UNL     1     -24.678 -19.257  -9.256  1.00  0.00     0.118 C 
BRANCH  29  30
ATOM     30  O   UNL     1     -25.434 -20.229  -8.584  1.00  0.00    -0.393 OA
ATOM     31  H   UNL     1     -24.809 -20.763  -8.030  1.00  0.00     0.210 HD
ENDBRANCH  29  30
ENDBRANCH   9  11
ENDBRANCH   1   9
TORSDOF 7
ENDMDL
MODEL 2
REMARK VINA RESULT:    27.904      2.569      4.071
REMARK INTER + INTRA:          39.545
REMARK INTER:                  32.266
REMARK INTRA:                   7.279
REMARK UNBOUND:                 1.038
REMARK SMILES CC[C@H](CC[C@H](C)[C@@H]1CC[C@H]2[C@H]3CC=C4C[C@H](O)CC[C@]4(C)[C@H]3CC[C@]21C)C(C)C
REMARK SMILES IDX 5 1 4 2 3 3 2 4 1 5 28 6 29 7 30 8 6 9 7 10 8 11 9 12 26 13
REMARK SMILES IDX 10 14 11 15 25 16 27 17 12 18 24 19 23 20 13 21 21 22 14 23
REMARK SMILES IDX 15 24 20 25 22 26 16 27 19 28 17 29 18 30
REMARK H PARENT 18 31
REMARK Flexibility Score: inf
ROOT
ATOM      1  C   UNL     1     -22.115 -15.141 -17.047  1.00  0.00     0.004 C 
ENDROOT
BRANCH   1   2
ATOM      2  C   UNL     1     -21.795 -13.877 -16.219  1.00  0.00     0.004 C 
BRANCH   2   3
ATOM      3  C   UNL     1     -20.763 -14.062 -15.058  1.00  0.00    -0.009 C 
BRANCH   3   4
ATOM      4  C   UNL     1     -21.531 -13.925 -13.699  1.00  0.00     0.000 C 
ATOM      5  C   UNL     1     -20.653 -14.194 -12.473  1.00  0.00     0.004 C 
ENDBRANCH   3   4
BRANCH   3   6
ATOM      6  C   UNL     1     -19.975 -15.426 -15.162  1.00  0.00    -0.014 C 
ATOM      7  C   UNL     1     -20.849 -16.661 -14.850  1.00  0.00     0.007 C 
ATOM      8  C   UNL     1     -18.747 -15.478 -14.226  1.00  0.00     0.007 C 
ENDBRANCH   3   6
ENDBRANCH   2   3
ENDBRANCH   1   2
BRANCH   1   9
ATOM      9  C   UNL     1     -23.621 -15.282 -17.427  1.00  0.00    -0.011 C 
ATOM     10  C   UNL     1     -24.262 -13.877 -17.504  1.00  0.00     0.008 C 
BRANCH   9  11
ATOM     11  C   UNL     1     -24.390 -16.195 -16.396  1.00  0.00    -0.002 C 
ATOM     12  C   UNL     1     -25.908 -15.995 -16.437  1.00  0.00     0.005 C 
ATOM     13  C   UNL     1     -24.023 -16.092 -14.860  1.00  0.00    -0.026 C 
ATOM     14  C   UNL     1     -26.421 -16.680 -15.191  1.00  0.00     0.005 C 
ATOM     15  C   UNL     1     -25.383 -16.356 -14.117  1.00  0.00    -0.001 C 
ATOM     16  C   UNL     1     -22.953 -17.155 -14.471  1.00  0.00     0.007 C 
ATOM     17  C   UNL     1     -23.513 -14.674 -14.482  1.00  0.00     0.012 C 
ATOM     18  C   UNL     1     -25.348 -17.345 -12.905  1.00  0.00     0.000 C 
ATOM     19  C   UNL     1     -22.804 -17.427 -12.958  1.00  0.00     0.005 C 
ATOM     20  C   UNL     1     -24.060 -17.130 -12.085  1.00  0.00     0.003 C 
ATOM     21  C   UNL     1     -25.522 -18.841 -13.240  1.00  0.00     0.031 C 
ATOM     22  C   UNL     1     -24.099 -17.937 -10.727  1.00  0.00    -0.008 C 
ATOM     23  C   UNL     1     -25.283 -19.736 -12.055  1.00  0.00    -0.027 C 
ATOM     24  C   UNL     1     -24.636 -19.355 -10.929  1.00  0.00    -0.065 C 
ATOM     25  C   UNL     1     -25.023 -17.211  -9.682  1.00  0.00     0.014 C 
ATOM     26  C   UNL     1     -22.667 -18.020 -10.118  1.00  0.00     0.016 C 
ATOM     27  C   UNL     1     -24.716 -20.251  -9.708  1.00  0.00     0.063 C 
ATOM     28  C   UNL     1     -25.905 -18.153  -8.822  1.00  0.00     0.033 C 
ATOM     29  C   UNL     1     -25.198 -19.476  -8.456  1.00  0.00     0.118 C 
BRANCH  29  30
ATOM     30  O   UNL     1     -26.071 -20.294  -7.725  1.00  0.00    -0.393 OA
ATOM     31  H   UNL     1     -25.537 -20.753  -7.027  1.00  0.00     0.210 HD
ENDBRANCH  29  30
ENDBRANCH   9  11
ENDBRANCH   1   9
TORSDOF 7
ENDMDL
MODEL 3
REMARK VINA RESULT:    28.141      4.290      6.278
REMARK INTER + INTRA:          39.872
REMARK INTER:                  38.070
REMARK INTRA:                   1.802
REMARK UNBOUND:                 1.038
REMARK SMILES CC[C@H](CC[C@H](C)[C@@H]1CC[C@H]2[C@H]3CC=C4C[C@H](O)CC[C@]4(C)[C@H]3CC[C@]21C)C(C)C
REMARK SMILES IDX 5 1 4 2 3 3 2 4 1 5 28 6 29 7 30 8 6 9 7 10 8 11 9 12 26 13
REMARK SMILES IDX 10 14 11 15 25 16 27 17 12 18 24 19 23 20 13 21 21 22 14 23
REMARK SMILES IDX 15 24 20 25 22 26 16 27 19 28 17 29 18 30
REMARK H PARENT 18 31
REMARK Flexibility Score: inf
ROOT
ATOM      1  C   UNL     1     -17.394 -16.397 -14.369  1.00  0.00     0.004 C 
ENDROOT
BRANCH   1   2
ATOM      2  C   UNL     1     -16.655 -16.676 -15.697  1.00  0.00     0.004 C 
BRANCH   2   3
ATOM      3  C   UNL     1     -17.212 -17.860 -16.555  1.00  0.00    -0.009 C 
BRANCH   3   4
ATOM      4  C   UNL     1     -17.453 -17.332 -18.010  1.00  0.00     0.000 C 
ATOM      5  C   UNL     1     -17.161 -18.376 -19.093  1.00  0.00     0.004 C 
ENDBRANCH   3   4
BRANCH   3   6
ATOM      6  C   UNL     1     -16.266 -19.123 -16.528  1.00  0.00    -0.014 C 
ATOM      7  C   UNL     1     -14.799 -18.795 -16.888  1.00  0.00     0.007 C 
ATOM      8  C   UNL     1     -16.738 -20.243 -17.481  1.00  0.00     0.007 C 
ENDBRANCH   3   6
ENDBRANCH   2   3
ENDBRANCH   1   2
BRANCH   1   9
ATOM      9  C   UNL     1     -17.678 -14.886 -14.110  1.00  0.00    -0.011 C 
ATOM     10  C   UNL     1     -16.959 -14.446 -12.814  1.00  0.00     0.008 C 
BRANCH   9  11
ATOM     11  C   UNL     1     -19.227 -14.601 -14.019  1.00  0.00    -0.002 C 
ATOM     12  C   UNL     1     -19.626 -13.875 -12.731  1.00  0.00     0.005 C 
ATOM     13  C   UNL     1     -20.236 -15.816 -14.112  1.00  0.00    -0.026 C 
ATOM     14  C   UNL     1     -21.132 -13.991 -12.673  1.00  0.00     0.005 C 
ATOM     15  C   UNL     1     -21.431 -15.402 -13.178  1.00  0.00    -0.001 C 
ATOM     16  C   UNL     1     -20.716 -16.029 -15.579  1.00  0.00     0.007 C 
ATOM     17  C   UNL     1     -19.609 -17.130 -13.571  1.00  0.00     0.012 C 
ATOM     18  C   UNL     1     -22.876 -15.617 -13.738  1.00  0.00     0.000 C 
ATOM     19  C   UNL     1     -21.980 -16.901 -15.746  1.00  0.00     0.005 C 
ATOM     20  C   UNL     1     -22.946 -16.943 -14.524  1.00  0.00     0.003 C 
ATOM     21  C   UNL     1     -23.459 -14.466 -14.583  1.00  0.00     0.031 C 
ATOM     22  C   UNL     1     -24.436 -17.313 -14.899  1.00  0.00    -0.008 C 
ATOM     23  C   UNL     1     -24.761 -14.827 -15.242  1.00  0.00    -0.027 C 
ATOM     24  C   UNL     1     -25.208 -16.094 -15.405  1.00  0.00    -0.065 C 
ATOM     25  C   UNL     1     -25.193 -17.883 -13.644  1.00  0.00     0.014 C 
ATOM     26  C   UNL     1     -24.447 -18.413 -16.002  1.00  0.00     0.016 C 
ATOM     27  C   UNL     1     -26.653 -16.306 -15.817  1.00  0.00     0.063 C 
ATOM     28  C   UNL     1     -26.665 -17.414 -13.499  1.00  0.00     0.033 C 
ATOM     29  C   UNL     1     -27.390 -17.271 -14.855  1.00  0.00     0.118 C 
BRANCH  29  30
ATOM     30  O   UNL     1     -28.693 -16.796 -14.647  1.00  0.00    -0.393 OA
ATOM     31  H   UNL     1     -29.258 -17.138 -15.386  1.00  0.00     0.210 HD
ENDBRANCH  29  30
ENDBRANCH   9  11
ENDBRANCH   1   9
TORSDOF 7
ENDMDL
MODEL 4
REMARK VINA RESULT:    28.938      1.280      2.926
REMARK INTER + INTRA:          40.971
REMARK INTER:                  41.977
REMARK INTRA:                  -1.005
REMARK UNBOUND:                 1.038
REMARK SMILES CC[C@H](CC[C@H](C)[C@@H]1CC[C@H]2[C@H]3CC=C4C[C@H](O)CC[C@]4(C)[C@H]3CC[C@]21C)C(C)C
REMARK SMILES IDX 5 1 4 2 3 3 2 4 1 5 28 6 29 7 30 8 6 9 7 10 8 11 9 12 26 13
REMARK SMILES IDX 10 14 11 15 25 16 27 17 12 18 24 19 23 20 13 21 21 22 14 23
REMARK SMILES IDX 15 24 20 25 22 26 16 27 19 28 17 29 18 30
REMARK H PARENT 18 31
REMARK Flexibility Score: inf
ROOT
ATOM      1  C   UNL     1     -22.828 -15.473 -18.708  1.00  0.00     0.004 C 
ENDROOT
BRANCH   1   2
ATOM      2  C   UNL     1     -23.068 -14.924 -20.132  1.00  0.00     0.004 C 
BRANCH   2   3
ATOM      3  C   UNL     1     -23.553 -15.964 -21.195  1.00  0.00    -0.009 C 
BRANCH   3   4
ATOM      4  C   UNL     1     -25.120 -15.958 -21.200  1.00  0.00     0.000 C 
ATOM      5  C   UNL     1     -25.734 -17.326 -21.517  1.00  0.00     0.004 C 
ENDBRANCH   3   4
BRANCH   3   6
ATOM      6  C   UNL     1     -22.952 -15.689 -22.628  1.00  0.00    -0.014 C 
ATOM      7  C   UNL     1     -21.693 -16.531 -22.935  1.00  0.00     0.007 C 
ATOM      8  C   UNL     1     -22.581 -14.205 -22.845  1.00  0.00     0.007 C 
ENDBRANCH   3   6
ENDBRANCH   2   3
ENDBRANCH   1   2
BRANCH   1   9
ATOM      9  C   UNL     1     -24.028 -15.254 -17.737  1.00  0.00    -0.011 C 
ATOM     10  C   UNL     1     -24.672 -13.877 -18.023  1.00  0.00     0.008 C 
BRANCH   9  11
ATOM     11  C   UNL     1     -23.573 -15.361 -16.230  1.00  0.00    -0.002 C 
ATOM     12  C   UNL     1     -22.073 -15.117 -16.041  1.00  0.00     0.005 C 
ATOM     13  C   UNL     1     -23.855 -16.702 -15.438  1.00  0.00    -0.026 C 
ATOM     14  C   UNL     1     -21.782 -15.581 -14.631  1.00  0.00     0.005 C 
ATOM     15  C   UNL     1     -22.638 -16.835 -14.452  1.00  0.00    -0.001 C 
ATOM     16  C   UNL     1     -25.203 -16.616 -14.662  1.00  0.00     0.007 C 
ATOM     17  C   UNL     1     -23.873 -17.936 -16.382  1.00  0.00     0.012 C 
ATOM     18  C   UNL     1     -22.965 -17.212 -12.970  1.00  0.00     0.000 C 
ATOM     19  C   UNL     1     -25.400 -17.673 -13.553  1.00  0.00     0.005 C 
ATOM     20  C   UNL     1     -24.098 -18.258 -12.929  1.00  0.00     0.003 C 
ATOM     21  C   UNL     1     -23.289 -16.038 -12.023  1.00  0.00     0.031 C 
ATOM     22  C   UNL     1     -24.293 -18.840 -11.472  1.00  0.00    -0.008 C 
ATOM     23  C   UNL     1     -23.780 -16.494 -10.676  1.00  0.00    -0.027 C 
ATOM     24  C   UNL     1     -24.245 -17.737 -10.414  1.00  0.00    -0.065 C 
ATOM     25  C   UNL     1     -23.162 -19.881 -11.141  1.00  0.00     0.014 C 
ATOM     26  C   UNL     1     -25.662 -19.576 -11.375  1.00  0.00     0.016 C 
ATOM     27  C   UNL     1     -24.433 -18.150  -8.966  1.00  0.00     0.063 C 
ATOM     28  C   UNL     1     -22.614 -19.813  -9.691  1.00  0.00     0.033 C 
ATOM     29  C   UNL     1     -23.702 -19.479  -8.648  1.00  0.00     0.118 C 
BRANCH  29  30
ATOM     30  O   UNL     1     -23.124 -19.384  -7.374  1.00  0.00    -0.393 OA
ATOM     31  H   UNL     1     -22.323 -18.806  -7.451  1.00  0.00     0.210 HD
ENDBRANCH  29  30
ENDBRANCH   9  11
ENDBRANCH   1   9
TORSDOF 7
ENDMDL
MODEL 5
REMARK VINA RESULT:    29.020      1.151      2.451
REMARK INTER + INTRA:          41.085
REMARK INTER:                  40.835
REMARK INTRA:                   0.250
REMARK UNBOUND:                 1.038
REMARK SMILES CC[C@H](CC[C@H](C)[C@@H]1CC[C@H]2[C@H]3CC=C4C[C@H](O)CC[C@]4(C)[C@H]3CC[C@]21C)C(C)C
REMARK SMILES IDX 5 1 4 2 3 3 2 4 1 5 28 6 29 7 30 8 6 9 7 10 8 11 9 12 26 13
REMARK SMILES IDX 10 14 11 15 25 16 27 17 12 18 24 19 23 20 13 21 21 22 14 23
REMARK SMILES IDX 15 24 20 25 22 26 16 27 19 28 17 29 18 30
REMARK H PARENT 18 31
REMARK Flexibility Score: inf
ROOT
ATOM      1  C   UNL     1     -22.945 -15.065 -19.177  1.00  0.00     0.004 C 
ENDROOT
BRANCH   1   2
ATOM      2  C   UNL     1     -23.229 -14.057 -20.313  1.00  0.00     0.004 C 
BRANCH   2   3
ATOM      3  C   UNL     1     -22.749 -14.480 -21.741  1.00  0.00    -0.009 C 
BRANCH   3   4
ATOM      4  C   UNL     1     -21.194 -14.668 -21.694  1.00  0.00     0.000 C 
ATOM      5  C   UNL     1     -20.532 -14.616 -23.074  1.00  0.00     0.004 C 
ENDBRANCH   3   4
BRANCH   3   6
ATOM      6  C   UNL     1     -23.489 -15.769 -22.270  1.00  0.00    -0.014 C 
ATOM      7  C   UNL     1     -24.438 -16.400 -21.226  1.00  0.00     0.007 C 
ATOM      8  C   UNL     1     -22.512 -16.871 -22.734  1.00  0.00     0.007 C 
ENDBRANCH   3   6
ENDBRANCH   2   3
ENDBRANCH   1   2
BRANCH   1   9
ATOM      9  C   UNL     1     -24.079 -15.150 -18.110  1.00  0.00    -0.011 C 
ATOM     10  C   UNL     1     -24.950 -13.875 -18.190  1.00  0.00     0.008 C 
BRANCH   9  11
ATOM     11  C   UNL     1     -23.488 -15.339 -16.659  1.00  0.00    -0.002 C 
ATOM     12  C   UNL     1     -21.957 -15.368 -16.637  1.00  0.00     0.005 C 
ATOM     13  C   UNL     1     -23.916 -16.609 -15.818  1.00  0.00    -0.026 C 
ATOM     14  C   UNL     1     -21.601 -15.879 -15.259  1.00  0.00     0.005 C 
ATOM     15  C   UNL     1     -22.642 -16.960 -14.967  1.00  0.00    -0.001 C 
ATOM     16  C   UNL     1     -25.134 -16.284 -14.903  1.00  0.00     0.007 C 
ATOM     17  C   UNL     1     -24.257 -17.819 -16.732  1.00  0.00     0.012 C 
ATOM     18  C   UNL     1     -22.867 -17.275 -13.451  1.00  0.00     0.000 C 
ATOM     19  C   UNL     1     -25.394 -17.291 -13.760  1.00  0.00     0.005 C 
ATOM     20  C   UNL     1     -24.157 -18.101 -13.269  1.00  0.00     0.003 C 
ATOM     21  C   UNL     1     -22.871 -16.064 -12.496  1.00  0.00     0.031 C 
ATOM     22  C   UNL     1     -24.292 -18.641 -11.790  1.00  0.00    -0.008 C 
ATOM     23  C   UNL     1     -23.285 -16.426 -11.096  1.00  0.00    -0.027 C 
ATOM     24  C   UNL     1     -23.933 -17.566 -10.763  1.00  0.00    -0.065 C 
ATOM     25  C   UNL     1     -23.336 -19.869 -11.564  1.00  0.00     0.014 C 
ATOM     26  C   UNL     1     -25.751 -19.120 -11.533  1.00  0.00     0.016 C 
ATOM     27  C   UNL     1     -24.033 -17.942  -9.297  1.00  0.00     0.063 C 
ATOM     28  C   UNL     1     -22.629 -19.902 -10.184  1.00  0.00     0.033 C 
ATOM     29  C   UNL     1     -23.520 -19.380  -9.036  1.00  0.00     0.118 C 
BRANCH  29  30
ATOM     30  O   UNL     1     -22.798 -19.393  -7.833  1.00  0.00    -0.393 OA
ATOM     31  H   UNL     1     -22.061 -20.047  -7.933  1.00  0.00     0.210 HD
ENDBRANCH  29  30
ENDBRANCH   9  11
ENDBRANCH   1   9
TORSDOF 7
ENDMDL
MODEL 6
REMARK VINA RESULT:    29.193      2.141      3.812
REMARK INTER + INTRA:          41.323
REMARK INTER:                  39.327
REMARK INTRA:                   1.996
REMARK UNBOUND:                 1.038
REMARK SMILES CC[C@H](CC[C@H](C)[C@@H]1CC[C@H]2[C@H]3CC=C4C[C@H](O)CC[C@]4(C)[C@H]3CC[C@]21C)C(C)C
REMARK SMILES IDX 5 1 4 2 3 3 2 4 1 5 28 6 29 7 30 8 6 9 7 10 8 11 9 12 26 13
REMARK SMILES IDX 10 14 11 15 25 16 27 17 12 18 24 19 23 20 13 21 21 22 14 23
REMARK SMILES IDX 15 24 20 25 22 26 16 27 19 28 17 29 18 30
REMARK H PARENT 18 31
REMARK Flexibility Score: inf
ROOT
ATOM      1  C   UNL     1     -25.786 -16.605 -18.597  1.00  0.00     0.004 C 
ENDROOT
BRANCH   1   2
ATOM      2  C   UNL     1     -26.044 -16.906 -20.090  1.00  0.00     0.004 C 
BRANCH   2   3
ATOM      3  C   UNL     1     -27.397 -17.617 -20.422  1.00  0.00    -0.009 C 
BRANCH   3   4
ATOM      4  C   UNL     1     -28.069 -16.849 -21.611  1.00  0.00     0.000 C 
ATOM      5  C   UNL     1     -28.172 -17.681 -22.894  1.00  0.00     0.004 C 
ENDBRANCH   3   4
BRANCH   3   6
ATOM      6  C   UNL     1     -27.212 -19.153 -20.734  1.00  0.00    -0.014 C 
ATOM      7  C   UNL     1     -26.183 -19.430 -21.854  1.00  0.00     0.007 C 
ATOM      8  C   UNL     1     -28.533 -19.844 -21.138  1.00  0.00     0.007 C 
ENDBRANCH   3   6
ENDBRANCH   2   3
ENDBRANCH   1   2
BRANCH   1   9
ATOM      9  C   UNL     1     -24.815 -15.409 -18.353  1.00  0.00    -0.011 C 
ATOM     10  C   UNL     1     -23.716 -15.414 -19.441  1.00  0.00     0.008 C 
BRANCH   9  11
ATOM     11  C   UNL     1     -24.179 -15.472 -16.911  1.00  0.00    -0.002 C 
ATOM     12  C   UNL     1     -22.658 -15.287 -16.920  1.00  0.00     0.005 C 
ATOM     13  C   UNL     1     -24.411 -16.763 -16.027  1.00  0.00    -0.026 C 
ATOM     14  C   UNL     1     -22.211 -15.702 -15.537  1.00  0.00     0.005 C 
ATOM     15  C   UNL     1     -23.085 -16.908 -15.194  1.00  0.00    -0.001 C 
ATOM     16  C   UNL     1     -25.646 -16.585 -15.095  1.00  0.00     0.007 C 
ATOM     17  C   UNL     1     -24.595 -18.035 -16.900  1.00  0.00     0.012 C 
ATOM     18  C   UNL     1     -23.238 -17.206 -13.666  1.00  0.00     0.000 C 
ATOM     19  C   UNL     1     -25.743 -17.583 -13.920  1.00  0.00     0.005 C 
ATOM     20  C   UNL     1     -24.396 -18.198 -13.434  1.00  0.00     0.003 C 
ATOM     21  C   UNL     1     -23.395 -15.980 -12.743  1.00  0.00     0.031 C 
ATOM     22  C   UNL     1     -24.429 -18.708 -11.939  1.00  0.00    -0.008 C 
ATOM     23  C   UNL     1     -23.730 -16.355 -11.326  1.00  0.00    -0.027 C 
ATOM     24  C   UNL     1     -24.207 -17.564 -10.949  1.00  0.00    -0.065 C 
ATOM     25  C   UNL     1     -23.308 -19.784 -11.700  1.00  0.00     0.014 C 
ATOM     26  C   UNL     1     -25.803 -19.378 -11.638  1.00  0.00     0.016 C 
ATOM     27  C   UNL     1     -24.228 -17.906  -9.471  1.00  0.00     0.063 C 
ATOM     28  C   UNL     1     -22.579 -19.678 -10.335  1.00  0.00     0.033 C 
ATOM     29  C   UNL     1     -23.514 -19.251  -9.182  1.00  0.00     0.118 C 
BRANCH  29  30
ATOM     30  O   UNL     1     -22.778 -19.128  -7.995  1.00  0.00    -0.393 OA
ATOM     31  H   UNL     1     -21.838 -18.938  -8.245  1.00  0.00     0.210 HD
ENDBRANCH  29  30
ENDBRANCH   9  11
ENDBRANCH   1   9
TORSDOF 7
ENDMDL
