MODEL 1
REMARK VINA RESULT:    15.466      0.000      0.000
REMARK INTER + INTRA:          22.698
REMARK INTER:                  22.699
REMARK INTRA:                  -0.001
REMARK UNBOUND:                -0.001
REMARK SMILES O=c1c(O[C@@H]2O[C@@H](CO)[C@@H](O)[C@H](O)[C@@H]2O)c(-c2ccc(O)c(O)c2)oc2cc(O)cc(O)c12
REMARK SMILES IDX 4 1 3 2 16 3 25 4 2 5 26 6 1 7 33 8 27 9 31 10 28 11 30 12
REMARK SMILES IDX 17 13 18 14 19 15 20 16 24 17 22 18 21 19 23 21 32 23 29 25
REMARK SMILES IDX 5 27 14 28 6 29 12 30 7 31 10 32 15 33 13 35 8 37 9 38 11 40
REMARK H PARENT 21 20 23 22 32 24 29 26 15 34 13 36 9 39 11 41
REMARK Flexibility Score: inf
ROOT
ATOM      1  O   UNL     1      -0.967  -1.760   0.074  1.00  0.00    -0.454 OA
ENDROOT
BRANCH   1   2
ATOM      2  C   UNL     1      -0.483  -3.049   0.344  1.00  0.00     0.214 A 
ATOM      3  C   UNL     1       0.863  -3.365   0.083  1.00  0.00     0.180 A 
ATOM      4  O   UNL     1       1.310  -4.601   0.283  1.00  0.00    -0.452 OA
ATOM      5  C   UNL     1      -1.314  -4.041   0.891  1.00  0.00     0.239 A 
ATOM      6  C   UNL     1       0.550  -5.579   0.765  1.00  0.00     0.146 A 
ATOM      7  O   UNL     1      -2.497  -3.750   1.216  1.00  0.00    -0.285 OA
ATOM      8  C   UNL     1      -0.805  -5.340   1.100  1.00  0.00     0.111 A 
ATOM      9  C   UNL     1       1.107  -6.848   0.952  1.00  0.00     0.094 A 
ATOM     10  C   UNL     1      -1.585  -6.401   1.626  1.00  0.00     0.134 A 
ATOM     11  C   UNL     1       0.331  -7.891   1.477  1.00  0.00     0.123 A 
ATOM     12  C   UNL     1      -1.005  -7.665   1.813  1.00  0.00     0.093 A 
BRANCH   3  13
ATOM     13  C   UNL     1       1.807  -2.350  -0.422  1.00  0.00     0.025 A 
ATOM     14  C   UNL     1       3.155  -2.369  -0.031  1.00  0.00     0.016 A 
ATOM     15  C   UNL     1       4.039  -1.390  -0.498  1.00  0.00     0.051 A 
ATOM     16  C   UNL     1       3.589  -0.393  -1.375  1.00  0.00     0.157 A 
ATOM     17  C   UNL     1       1.364  -1.369  -1.325  1.00  0.00     0.062 A 
ATOM     18  C   UNL     1       2.246  -0.387  -1.797  1.00  0.00     0.158 A 
BRANCH  16  19
ATOM     19  O   UNL     1       4.470   0.588  -1.834  1.00  0.00    -0.504 OA
ATOM     20  H   UNL     1       5.325   0.344  -2.325  1.00  0.00     0.293 HD
ENDBRANCH  16  19
BRANCH  18  21
ATOM     21  O   UNL     1       1.771   0.584  -2.681  1.00  0.00    -0.504 OA
ATOM     22  H   UNL     1       2.364   1.009  -3.385  1.00  0.00     0.293 HD
ENDBRANCH  18  21
ENDBRANCH   3  13
BRANCH  10  23
ATOM     23  O   UNL     1      -2.930  -6.212   1.963  1.00  0.00    -0.507 OA
ATOM     24  H   UNL     1      -3.655  -6.848   1.651  1.00  0.00     0.293 HD
ENDBRANCH  10  23
BRANCH  11  25
ATOM     25  O   UNL     1       0.878  -9.156   1.671  1.00  0.00    -0.508 OA
ATOM     26  H   UNL     1       1.707  -9.454   1.169  1.00  0.00     0.293 HD
ENDBRANCH  11  25
ENDBRANCH   1   2
BRANCH   1  27
ATOM     27  C   UNL     1      -1.345  -0.832   1.097  1.00  0.00     0.339 C 
ATOM     28  C   UNL     1      -0.924   0.616   0.742  1.00  0.00     0.214 C 
ATOM     29  O   UNL     1      -2.735  -0.919   1.375  1.00  0.00    -0.332 OA
ATOM     30  C   UNL     1      -1.815   1.254  -0.350  1.00  0.00     0.180 C 
ATOM     31  C   UNL     1      -3.521  -0.530   0.258  1.00  0.00     0.179 C 
ATOM     32  C   UNL     1      -3.309   0.968  -0.074  1.00  0.00     0.177 C 
BRANCH  28  33
ATOM     33  O   UNL     1       0.442   0.697   0.415  1.00  0.00    -0.384 OA
ATOM     34  H   UNL     1       0.558   1.439  -0.230  1.00  0.00     0.211 HD
ENDBRANCH  28  33
BRANCH  30  35
ATOM     35  O   UNL     1      -1.447   0.861  -1.650  1.00  0.00    -0.387 OA
ATOM     36  H   UNL     1      -1.999   0.078  -1.905  1.00  0.00     0.211 HD
ENDBRANCH  30  35
BRANCH  31  37
ATOM     37  C   UNL     1      -4.996  -0.846   0.569  1.00  0.00     0.191 C 
BRANCH  37  38
ATOM     38  O   UNL     1      -5.145  -2.183   0.980  1.00  0.00    -0.394 OA
ATOM     39  H   UNL     1      -5.753  -2.185   1.768  1.00  0.00     0.210 HD
ENDBRANCH  37  38
ENDBRANCH  31  37
BRANCH  32  40
ATOM     40  O   UNL     1      -3.751   1.754   1.005  1.00  0.00    -0.387 OA
ATOM     41  H   UNL     1      -3.017   2.391   1.215  1.00  0.00     0.211 HD
ENDBRANCH  32  40
ENDBRANCH   1  27
TORSDOF 12
ENDMDL
MODEL 2
REMARK VINA RESULT:    16.306      1.088      1.571
REMARK INTER + INTRA:          23.931
REMARK INTER:                  22.721
REMARK INTRA:                   1.209
REMARK UNBOUND:                -0.001
REMARK SMILES O=c1c(O[C@@H]2O[C@@H](CO)[C@@H](O)[C@H](O)[C@@H]2O)c(-c2ccc(O)c(O)c2)oc2cc(O)cc(O)c12
REMARK SMILES IDX 4 1 3 2 16 3 25 4 2 5 26 6 1 7 33 8 27 9 31 10 28 11 30 12
REMARK SMILES IDX 17 13 18 14 19 15 20 16 24 17 22 18 21 19 23 21 32 23 29 25
REMARK SMILES IDX 5 27 14 28 6 29 12 30 7 31 10 32 15 33 13 35 8 37 9 38 11 40
REMARK H PARENT 21 20 23 22 32 24 29 26 15 34 13 36 9 39 11 41
REMARK Flexibility Score: inf
ROOT
ATOM      1  O   UNL     1      -0.892  -1.730   0.115  1.00  0.00    -0.454 OA
ENDROOT
BRANCH   1   2
ATOM      2  C   UNL     1      -0.437  -3.032   0.372  1.00  0.00     0.214 A 
ATOM      3  C   UNL     1       0.899  -3.377   0.100  1.00  0.00     0.180 A 
ATOM      4  O   UNL     1       1.318  -4.626   0.287  1.00  0.00    -0.452 OA
ATOM      5  C   UNL     1      -1.288  -4.008   0.916  1.00  0.00     0.239 A 
ATOM      6  C   UNL     1       0.539  -5.589   0.766  1.00  0.00     0.146 A 
ATOM      7  O   UNL     1      -2.462  -3.692   1.251  1.00  0.00    -0.285 OA
ATOM      8  C   UNL     1      -0.809  -5.321   1.111  1.00  0.00     0.111 A 
ATOM      9  C   UNL     1       1.066  -6.872   0.939  1.00  0.00     0.094 A 
ATOM     10  C   UNL     1      -1.610  -6.367   1.634  1.00  0.00     0.134 A 
ATOM     11  C   UNL     1       0.269  -7.901   1.460  1.00  0.00     0.123 A 
ATOM     12  C   UNL     1      -1.059  -7.646   1.807  1.00  0.00     0.093 A 
BRANCH   3  13
ATOM     13  C   UNL     1       1.863  -2.381  -0.403  1.00  0.00     0.025 A 
ATOM     14  C   UNL     1       3.188  -2.366   0.065  1.00  0.00     0.016 A 
ATOM     15  C   UNL     1       4.090  -1.404  -0.402  1.00  0.00     0.051 A 
ATOM     16  C   UNL     1       3.684  -0.459  -1.355  1.00  0.00     0.157 A 
ATOM     17  C   UNL     1       1.466  -1.452  -1.380  1.00  0.00     0.062 A 
ATOM     18  C   UNL     1       2.368  -0.488  -1.852  1.00  0.00     0.158 A 
BRANCH  16  19
ATOM     19  O   UNL     1       4.584   0.505  -1.813  1.00  0.00    -0.504 OA
ATOM     20  H   UNL     1       4.345   1.492  -1.819  1.00  0.00     0.293 HD
ENDBRANCH  16  19
BRANCH  18  21
ATOM     21  O   UNL     1       1.937   0.432  -2.811  1.00  0.00    -0.504 OA
ATOM     22  H   UNL     1       1.445   1.282  -2.560  1.00  0.00     0.293 HD
ENDBRANCH  18  21
ENDBRANCH   3  13
BRANCH  10  23
ATOM     23  O   UNL     1      -2.948  -6.150   1.981  1.00  0.00    -0.507 OA
ATOM     24  H   UNL     1      -3.433  -6.740   2.648  1.00  0.00     0.293 HD
ENDBRANCH  10  23
BRANCH  11  25
ATOM     25  O   UNL     1       0.787  -9.180   1.640  1.00  0.00    -0.508 OA
ATOM     26  H   UNL     1       1.284  -9.433   2.487  1.00  0.00     0.293 HD
ENDBRANCH  11  25
ENDBRANCH   1   2
BRANCH   1  27
ATOM     27  C   UNL     1      -1.461  -0.883   1.121  1.00  0.00     0.339 C 
ATOM     28  C   UNL     1      -0.382  -0.019   1.821  1.00  0.00     0.214 C 
ATOM     29  O   UNL     1      -2.503  -0.084   0.582  1.00  0.00    -0.332 OA
ATOM     30  C   UNL     1       0.124   1.147   0.939  1.00  0.00     0.180 C 
ATOM     31  C   UNL     1      -2.019   0.828  -0.393  1.00  0.00     0.179 C 
ATOM     32  C   UNL     1      -1.059   1.862   0.245  1.00  0.00     0.177 C 
BRANCH  28  33
ATOM     33  O   UNL     1       0.678  -0.803   2.309  1.00  0.00    -0.384 OA
ATOM     34  H   UNL     1       0.293  -1.627   2.703  1.00  0.00     0.211 HD
ENDBRANCH  28  33
BRANCH  30  35
ATOM     35  O   UNL     1       1.098   0.741   0.007  1.00  0.00    -0.387 OA
ATOM     36  H   UNL     1       1.115   1.402  -0.731  1.00  0.00     0.211 HD
ENDBRANCH  30  35
BRANCH  31  37
ATOM     37  C   UNL     1      -3.227   1.506  -1.067  1.00  0.00     0.191 C 
BRANCH  37  38
ATOM     38  O   UNL     1      -3.023   1.627  -2.453  1.00  0.00    -0.394 OA
ATOM     39  H   UNL     1      -3.828   1.254  -2.905  1.00  0.00     0.210 HD
ENDBRANCH  37  38
ENDBRANCH  31  37
BRANCH  32  40
ATOM     40  O   UNL     1      -1.761   2.636   1.186  1.00  0.00    -0.387 OA
ATOM     41  H   UNL     1      -1.091   2.974   1.838  1.00  0.00     0.211 HD
ENDBRANCH  32  40
ENDBRANCH   1  27
TORSDOF 12
ENDMDL
MODEL 3
REMARK VINA RESULT:    17.321      1.968      6.112
REMARK INTER + INTRA:          25.421
REMARK INTER:                  24.561
REMARK INTRA:                   0.860
REMARK UNBOUND:                -0.001
REMARK SMILES O=c1c(O[C@@H]2O[C@@H](CO)[C@@H](O)[C@H](O)[C@@H]2O)c(-c2ccc(O)c(O)c2)oc2cc(O)cc(O)c12
REMARK SMILES IDX 4 1 3 2 16 3 25 4 2 5 26 6 1 7 33 8 27 9 31 10 28 11 30 12
REMARK SMILES IDX 17 13 18 14 19 15 20 16 24 17 22 18 21 19 23 21 32 23 29 25
REMARK SMILES IDX 5 27 14 28 6 29 12 30 7 31 10 32 15 33 13 35 8 37 9 38 11 40
REMARK H PARENT 21 20 23 22 32 24 29 26 15 34 13 36 9 39 11 41
REMARK Flexibility Score: inf
ROOT
ATOM      1  O   UNL     1      -0.350  -0.050  -1.382  1.00  0.00    -0.454 OA
ENDROOT
BRANCH   1   2
ATOM      2  C   UNL     1       0.925  -0.526  -1.039  1.00  0.00     0.214 A 
ATOM      3  C   UNL     1       1.059  -1.591  -0.130  1.00  0.00     0.180 A 
ATOM      4  O   UNL     1       2.266  -2.005   0.241  1.00  0.00    -0.452 OA
ATOM      5  C   UNL     1       2.087   0.029  -1.602  1.00  0.00     0.239 A 
ATOM      6  C   UNL     1       3.391  -1.485  -0.238  1.00  0.00     0.146 A 
ATOM      7  O   UNL     1       1.983   0.922  -2.487  1.00  0.00    -0.285 OA
ATOM      8  C   UNL     1       3.353  -0.440  -1.193  1.00  0.00     0.111 A 
ATOM      9  C   UNL     1       4.619  -1.990   0.202  1.00  0.00     0.094 A 
ATOM     10  C   UNL     1       4.571   0.083  -1.696  1.00  0.00     0.134 A 
ATOM     11  C   UNL     1       5.819  -1.470  -0.303  1.00  0.00     0.123 A 
ATOM     12  C   UNL     1       5.792  -0.442  -1.247  1.00  0.00     0.093 A 
BRANCH   3  13
ATOM     13  C   UNL     1      -0.122  -2.267   0.441  1.00  0.00     0.025 A 
ATOM     14  C   UNL     1      -1.260  -1.531   0.809  1.00  0.00     0.016 A 
ATOM     15  C   UNL     1      -2.366  -2.177   1.369  1.00  0.00     0.051 A 
ATOM     16  C   UNL     1      -2.356  -3.568   1.551  1.00  0.00     0.157 A 
ATOM     17  C   UNL     1      -0.123  -3.663   0.595  1.00  0.00     0.062 A 
ATOM     18  C   UNL     1      -1.231  -4.315   1.155  1.00  0.00     0.158 A 
BRANCH  16  19
ATOM     19  O   UNL     1      -3.458  -4.209   2.118  1.00  0.00    -0.504 OA
ATOM     20  H   UNL     1      -3.564  -4.290   3.125  1.00  0.00     0.293 HD
ENDBRANCH  16  19
BRANCH  18  21
ATOM     21  O   UNL     1      -1.195  -5.703   1.310  1.00  0.00    -0.504 OA
ATOM     22  H   UNL     1      -0.327  -6.227   1.274  1.00  0.00     0.293 HD
ENDBRANCH  18  21
ENDBRANCH   3  13
BRANCH  10  23
ATOM     23  O   UNL     1       4.580   1.121  -2.635  1.00  0.00    -0.507 OA
ATOM     24  H   UNL     1       5.103   1.056  -3.501  1.00  0.00     0.293 HD
ENDBRANCH  10  23
BRANCH  11  25
ATOM     25  O   UNL     1       7.046  -1.969   0.126  1.00  0.00    -0.508 OA
ATOM     26  H   UNL     1       7.244  -2.106   1.110  1.00  0.00     0.293 HD
ENDBRANCH  11  25
ENDBRANCH   1   2
BRANCH   1  27
ATOM     27  C   UNL     1      -0.686   1.342  -1.418  1.00  0.00     0.339 C 
ATOM     28  C   UNL     1      -2.190   1.561  -1.718  1.00  0.00     0.214 C 
ATOM     29  O   UNL     1      -0.292   1.991  -0.218  1.00  0.00    -0.332 OA
ATOM     30  C   UNL     1      -3.101   1.237  -0.510  1.00  0.00     0.180 C 
ATOM     31  C   UNL     1      -1.006   1.499   0.907  1.00  0.00     0.179 C 
ATOM     32  C   UNL     1      -2.515   1.829   0.792  1.00  0.00     0.177 C 
BRANCH  28  33
ATOM     33  O   UNL     1      -2.595   0.875  -2.877  1.00  0.00    -0.384 OA
ATOM     34  H   UNL     1      -3.196   1.473  -3.392  1.00  0.00     0.211 HD
ENDBRANCH  28  33
BRANCH  30  35
ATOM     35  O   UNL     1      -3.359  -0.141  -0.379  1.00  0.00    -0.387 OA
ATOM     36  H   UNL     1      -3.014  -0.438   0.501  1.00  0.00     0.211 HD
ENDBRANCH  30  35
BRANCH  31  37
ATOM     37  C   UNL     1      -0.382   2.102   2.180  1.00  0.00     0.191 C 
BRANCH  37  38
ATOM     38  O   UNL     1      -0.005   3.440   1.966  1.00  0.00    -0.394 OA
ATOM     39  H   UNL     1       0.622   3.692   2.697  1.00  0.00     0.210 HD
ENDBRANCH  37  38
ENDBRANCH  31  37
BRANCH  32  40
ATOM     40  O   UNL     1      -2.691   3.224   0.799  1.00  0.00    -0.387 OA
ATOM     41  H   UNL     1      -2.779   3.507  -0.150  1.00  0.00     0.211 HD
ENDBRANCH  32  40
ENDBRANCH   1  27
TORSDOF 12
ENDMDL
MODEL 4
REMARK VINA RESULT:    17.940      1.505      4.820
REMARK INTER + INTRA:          26.329
REMARK INTER:                  22.948
REMARK INTRA:                   3.381
REMARK UNBOUND:                -0.001
REMARK SMILES O=c1c(O[C@@H]2O[C@@H](CO)[C@@H](O)[C@H](O)[C@@H]2O)c(-c2ccc(O)c(O)c2)oc2cc(O)cc(O)c12
REMARK SMILES IDX 4 1 3 2 16 3 25 4 2 5 26 6 1 7 33 8 27 9 31 10 28 11 30 12
REMARK SMILES IDX 17 13 18 14 19 15 20 16 24 17 22 18 21 19 23 21 32 23 29 25
REMARK SMILES IDX 5 27 14 28 6 29 12 30 7 31 10 32 15 33 13 35 8 37 9 38 11 40
REMARK H PARENT 21 20 23 22 32 24 29 26 15 34 13 36 9 39 11 41
REMARK Flexibility Score: inf
ROOT
ATOM      1  O   UNL     1       0.407  -2.749  -0.114  1.00  0.00    -0.454 OA
ENDROOT
BRANCH   1   2
ATOM      2  C   UNL     1      -0.074  -3.955   0.415  1.00  0.00     0.214 A 
ATOM      3  C   UNL     1      -1.385  -4.030   0.920  1.00  0.00     0.180 A 
ATOM      4  O   UNL     1      -1.824  -5.156   1.475  1.00  0.00    -0.452 OA
ATOM      5  C   UNL     1       0.723  -5.112   0.438  1.00  0.00     0.239 A 
ATOM      6  C   UNL     1      -1.093  -6.262   1.550  1.00  0.00     0.146 A 
ATOM      7  O   UNL     1       1.867  -5.089  -0.093  1.00  0.00    -0.285 OA
ATOM      8  C   UNL     1       0.222  -6.293   1.025  1.00  0.00     0.111 A 
ATOM      9  C   UNL     1      -1.639  -7.405   2.142  1.00  0.00     0.094 A 
ATOM     10  C   UNL     1       0.973  -7.494   1.108  1.00  0.00     0.134 A 
ATOM     11  C   UNL     1      -0.894  -8.589   2.217  1.00  0.00     0.123 A 
ATOM     12  C   UNL     1       0.403  -8.631   1.700  1.00  0.00     0.093 A 
BRANCH   3  13
ATOM     13  C   UNL     1      -2.299  -2.874   0.859  1.00  0.00     0.025 A 
ATOM     14  C   UNL     1      -1.835  -1.617   0.439  1.00  0.00     0.016 A 
ATOM     15  C   UNL     1      -2.704  -0.520   0.405  1.00  0.00     0.051 A 
ATOM     16  C   UNL     1      -4.049  -0.673   0.773  1.00  0.00     0.157 A 
ATOM     17  C   UNL     1      -3.653  -3.032   1.199  1.00  0.00     0.062 A 
ATOM     18  C   UNL     1      -4.527  -1.937   1.165  1.00  0.00     0.158 A 
BRANCH  16  19
ATOM     19  O   UNL     1      -4.911   0.424   0.746  1.00  0.00    -0.504 OA
ATOM     20  H   UNL     1      -4.587   1.347   0.472  1.00  0.00     0.293 HD
ENDBRANCH  16  19
BRANCH  18  21
ATOM     21  O   UNL     1      -5.864  -2.124   1.523  1.00  0.00    -0.504 OA
ATOM     22  H   UNL     1      -6.608  -2.150   0.835  1.00  0.00     0.293 HD
ENDBRANCH  18  21
ENDBRANCH   3  13
BRANCH  10  23
ATOM     23  O   UNL     1       2.278  -7.567   0.610  1.00  0.00    -0.507 OA
ATOM     24  H   UNL     1       3.018  -6.966   0.954  1.00  0.00     0.293 HD
ENDBRANCH  10  23
BRANCH  11  25
ATOM     25  O   UNL     1      -1.432  -9.732   2.801  1.00  0.00    -0.508 OA
ATOM     26  H   UNL     1      -2.345 -10.081   2.534  1.00  0.00     0.293 HD
ENDBRANCH  11  25
ENDBRANCH   1   2
BRANCH   1  27
ATOM     27  C   UNL     1       1.283  -1.870   0.603  1.00  0.00     0.339 C 
ATOM     28  C   UNL     1       2.558  -1.541  -0.212  1.00  0.00     0.214 C 
ATOM     29  O   UNL     1       0.601  -0.692   1.006  1.00  0.00    -0.332 OA
ATOM     30  C   UNL     1       2.297  -0.550  -1.371  1.00  0.00     0.180 C 
ATOM     31  C   UNL     1       0.182   0.083  -0.108  1.00  0.00     0.179 C 
ATOM     32  C   UNL     1       1.401   0.619  -0.899  1.00  0.00     0.177 C 
BRANCH  28  33
ATOM     33  O   UNL     1       3.207  -2.707  -0.658  1.00  0.00    -0.384 OA
ATOM     34  H   UNL     1       2.887  -3.465  -0.106  1.00  0.00     0.211 HD
ENDBRANCH  28  33
BRANCH  30  35
ATOM     35  O   UNL     1       1.765  -1.177  -2.513  1.00  0.00    -0.387 OA
ATOM     36  H   UNL     1       0.875  -0.783  -2.697  1.00  0.00     0.211 HD
ENDBRANCH  30  35
BRANCH  31  37
ATOM     37  C   UNL     1      -0.717   1.224   0.404  1.00  0.00     0.191 C 
BRANCH  37  38
ATOM     38  O   UNL     1      -0.402   1.549   1.736  1.00  0.00    -0.394 OA
ATOM     39  H   UNL     1       0.575   1.397   1.856  1.00  0.00     0.210 HD
ENDBRANCH  37  38
ENDBRANCH  31  37
BRANCH  32  40
ATOM     40  O   UNL     1       2.146   1.486  -0.081  1.00  0.00    -0.387 OA
ATOM     41  H   UNL     1       2.606   0.920   0.594  1.00  0.00     0.211 HD
ENDBRANCH  32  40
ENDBRANCH   1  27
TORSDOF 12
ENDMDL
MODEL 5
REMARK VINA RESULT:    17.949      1.245      5.662
REMARK INTER + INTRA:          26.342
REMARK INTER:                  25.145
REMARK INTRA:                   1.196
REMARK UNBOUND:                -0.001
REMARK SMILES O=c1c(O[C@@H]2O[C@@H](CO)[C@@H](O)[C@H](O)[C@@H]2O)c(-c2ccc(O)c(O)c2)oc2cc(O)cc(O)c12
REMARK SMILES IDX 4 1 3 2 16 3 25 4 2 5 26 6 1 7 33 8 27 9 31 10 28 11 30 12
REMARK SMILES IDX 17 13 18 14 19 15 20 16 24 17 22 18 21 19 23 21 32 23 29 25
REMARK SMILES IDX 5 27 14 28 6 29 12 30 7 31 10 32 15 33 13 35 8 37 9 38 11 40
REMARK H PARENT 21 20 23 22 32 24 29 26 15 34 13 36 9 39 11 41
REMARK Flexibility Score: inf
ROOT
ATOM      1  O   UNL     1      -0.479  -1.100  -0.327  1.00  0.00    -0.454 OA
ENDROOT
BRANCH   1   2
ATOM      2  C   UNL     1       0.897  -1.370  -0.367  1.00  0.00     0.214 A 
ATOM      3  C   UNL     1       1.380  -2.631   0.026  1.00  0.00     0.180 A 
ATOM      4  O   UNL     1       2.688  -2.870   0.045  1.00  0.00    -0.452 OA
ATOM      5  C   UNL     1       1.817  -0.406  -0.814  1.00  0.00     0.239 A 
ATOM      6  C   UNL     1       3.595  -1.977  -0.335  1.00  0.00     0.146 A 
ATOM      7  O   UNL     1       1.396   0.698  -1.256  1.00  0.00    -0.285 OA
ATOM      8  C   UNL     1       3.198  -0.696  -0.790  1.00  0.00     0.111 A 
ATOM      9  C   UNL     1       4.950  -2.318  -0.292  1.00  0.00     0.094 A 
ATOM     10  C   UNL     1       4.190   0.230  -1.202  1.00  0.00     0.134 A 
ATOM     11  C   UNL     1       5.925  -1.399  -0.704  1.00  0.00     0.123 A 
ATOM     12  C   UNL     1       5.544  -0.135  -1.158  1.00  0.00     0.093 A 
BRANCH   3  13
ATOM     13  C   UNL     1       0.462  -3.711   0.435  1.00  0.00     0.025 A 
ATOM     14  C   UNL     1      -0.918  -3.475   0.546  1.00  0.00     0.016 A 
ATOM     15  C   UNL     1      -1.778  -4.499   0.956  1.00  0.00     0.051 A 
ATOM     16  C   UNL     1      -1.271  -5.775   1.241  1.00  0.00     0.157 A 
ATOM     17  C   UNL     1       0.965  -4.997   0.692  1.00  0.00     0.062 A 
ATOM     18  C   UNL     1       0.106  -6.028   1.101  1.00  0.00     0.158 A 
BRANCH  16  19
ATOM     19  O   UNL     1      -2.130  -6.794   1.657  1.00  0.00    -0.504 OA
ATOM     20  H   UNL     1      -3.131  -6.742   1.494  1.00  0.00     0.293 HD
ENDBRANCH  16  19
BRANCH  18  21
ATOM     21  O   UNL     1       0.639  -7.291   1.364  1.00  0.00    -0.504 OA
ATOM     22  H   UNL     1       0.068  -8.129   1.361  1.00  0.00     0.293 HD
ENDBRANCH  18  21
ENDBRANCH   3  13
BRANCH  10  23
ATOM     23  O   UNL     1       3.843   1.509  -1.652  1.00  0.00    -0.507 OA
ATOM     24  H   UNL     1       4.059   1.825  -2.591  1.00  0.00     0.293 HD
ENDBRANCH  10  23
BRANCH  11  25
ATOM     25  O   UNL     1       7.276  -1.732  -0.669  1.00  0.00    -0.508 OA
ATOM     26  H   UNL     1       7.593  -2.606  -0.268  1.00  0.00     0.293 HD
ENDBRANCH  11  25
ENDBRANCH   1   2
BRANCH   1  27
ATOM     27  C   UNL     1      -1.136  -0.535   0.814  1.00  0.00     0.339 C 
ATOM     28  C   UNL     1      -1.285   1.002   0.688  1.00  0.00     0.214 C 
ATOM     29  O   UNL     1      -2.388  -1.165   1.043  1.00  0.00    -0.332 OA
ATOM     30  C   UNL     1      -2.383   1.422  -0.318  1.00  0.00     0.180 C 
ATOM     31  C   UNL     1      -3.298  -0.932  -0.022  1.00  0.00     0.179 C 
ATOM     32  C   UNL     1      -3.659   0.571  -0.123  1.00  0.00     0.177 C 
BRANCH  28  33
ATOM     33  O   UNL     1      -0.055   1.624   0.409  1.00  0.00    -0.384 OA
ATOM     34  H   UNL     1       0.067   1.632  -0.575  1.00  0.00     0.211 HD
ENDBRANCH  28  33
BRANCH  30  35
ATOM     35  O   UNL     1      -1.939   1.386  -1.654  1.00  0.00    -0.387 OA
ATOM     36  H   UNL     1      -1.300   0.635  -1.747  1.00  0.00     0.211 HD
ENDBRANCH  30  35
BRANCH  31  37
ATOM     37  C   UNL     1      -4.545  -1.808   0.204  1.00  0.00     0.191 C 
BRANCH  37  38
ATOM     38  O   UNL     1      -4.823  -1.936   1.577  1.00  0.00    -0.394 OA
ATOM     39  H   UNL     1      -5.249  -1.087   1.874  1.00  0.00     0.210 HD
ENDBRANCH  37  38
ENDBRANCH  31  37
BRANCH  32  40
ATOM     40  O   UNL     1      -4.322   0.973   1.050  1.00  0.00    -0.387 OA
ATOM     41  H   UNL     1      -4.692   0.150   1.468  1.00  0.00     0.211 HD
ENDBRANCH  32  40
ENDBRANCH   1  27
TORSDOF 12
ENDMDL
