MODEL 1
REMARK VINA RESULT:    -6.516      0.000      0.000
REMARK INTER + INTRA:         -19.776
REMARK INTER:                 -17.182
REMARK INTRA:                  -2.594
REMARK UNBOUND:                -2.594
REMARK SMILES CCCCCCCCCCCCCCCCCCCCCCCCCCCCCC(=O)[O-]
REMARK SMILES IDX 16 1 17 2 18 3 19 4 20 5 21 6 22 7 23 8 24 9 25 10 26 11
REMARK SMILES IDX 27 12 28 13 29 14 30 15 31 16 32 17 15 18 14 19 13 20 12 21
REMARK SMILES IDX 11 22 10 23 9 24 8 25 7 26 6 27 5 28 4 29 3 30 2 31 1 32
REMARK H PARENT
REMARK Flexibility Score: inf
ROOT
ATOM      1  C   UNL     1     -13.217  -8.438  -6.882  1.00  0.00     0.000 C 
ENDROOT
BRANCH   1   2
ATOM      2  C   UNL     1     -12.343  -9.697  -6.726  1.00  0.00     0.000 C 
BRANCH   2   3
ATOM      3  C   UNL     1     -12.871 -10.715  -5.697  1.00  0.00     0.000 C 
BRANCH   3   4
ATOM      4  C   UNL     1     -11.742 -11.380  -4.888  1.00  0.00     0.000 C 
BRANCH   4   5
ATOM      5  C   UNL     1     -12.088 -11.513  -3.396  1.00  0.00     0.000 C 
BRANCH   5   6
ATOM      6  C   UNL     1     -11.177 -12.522  -2.674  1.00  0.00     0.000 C 
BRANCH   6   7
ATOM      7  C   UNL     1     -11.348 -12.490  -1.147  1.00  0.00     0.000 C 
BRANCH   7   8
ATOM      8  C   UNL     1     -11.043 -11.104  -0.551  1.00  0.00     0.000 C 
BRANCH   8   9
ATOM      9  C   UNL     1      -9.715 -11.076   0.223  1.00  0.00     0.000 C 
BRANCH   9  10
ATOM     10  C   UNL     1      -9.025 -12.450   0.257  1.00  0.00     0.000 C 
BRANCH  10  11
ATOM     11  C   UNL     1      -7.707 -12.476  -0.538  1.00  0.00     0.000 C 
BRANCH  11  12
ATOM     12  C   UNL     1      -7.261 -13.895  -0.948  1.00  0.00     0.000 C 
BRANCH  12  13
ATOM     13  C   UNL     1      -8.457 -14.823  -1.220  1.00  0.00     0.006 C 
BRANCH  13  14
ATOM     14  C   UNL     1      -8.236 -15.707  -2.454  1.00  0.00     0.053 C 
BRANCH  14  15
ATOM     15  C   UNL     1      -7.784 -17.084  -2.070  1.00  0.00     0.041 C 
ATOM     16  O   UNL     1      -7.211 -17.823  -2.914  1.00  0.00    -0.550 OA
ATOM     17  O   UNL     1      -8.023 -17.560  -0.788  1.00  0.00    -0.550 OA
ENDBRANCH  14  15
ENDBRANCH  13  14
ENDBRANCH  12  13
ENDBRANCH  11  12
ENDBRANCH  10  11
ENDBRANCH   9  10
ENDBRANCH   8   9
ENDBRANCH   7   8
ENDBRANCH   6   7
ENDBRANCH   5   6
ENDBRANCH   4   5
ENDBRANCH   3   4
ENDBRANCH   2   3
ENDBRANCH   1   2
BRANCH   1  18
ATOM     18  C   UNL     1     -14.537  -8.719  -7.622  1.00  0.00     0.000 C 
BRANCH  18  19
ATOM     19  C   UNL     1     -15.766  -8.156  -6.878  1.00  0.00     0.000 C 
BRANCH  19  20
ATOM     20  C   UNL     1     -17.100  -8.392  -7.612  1.00  0.00     0.000 C 
BRANCH  20  21
ATOM     21  C   UNL     1     -17.728  -9.786  -7.412  1.00  0.00     0.000 C 
BRANCH  21  22
ATOM     22  C   UNL     1     -17.231 -10.577  -6.183  1.00  0.00     0.000 C 
BRANCH  22  23
ATOM     23  C   UNL     1     -16.553 -11.930  -6.498  1.00  0.00     0.000 C 
BRANCH  23  24
ATOM     24  C   UNL     1     -15.315 -11.819  -7.408  1.00  0.00    -0.000 C 
BRANCH  24  25
ATOM     25  C   UNL     1     -15.124 -12.982  -8.398  1.00  0.00    -0.000 C 
BRANCH  25  26
ATOM     26  C   UNL     1     -15.326 -12.623  -9.885  1.00  0.00    -0.000 C 
BRANCH  26  27
ATOM     27  C   UNL     1     -15.944 -11.237 -10.149  1.00  0.00    -0.000 C 
BRANCH  27  28
ATOM     28  C   UNL     1     -17.196 -11.301 -11.041  1.00  0.00    -0.000 C 
BRANCH  28  29
ATOM     29  C   UNL     1     -18.289 -10.318 -10.588  1.00  0.00    -0.000 C 
BRANCH  29  30
ATOM     30  C   UNL     1     -19.335 -10.052 -11.684  1.00  0.00    -0.000 C 
BRANCH  30  31
ATOM     31  C   UNL     1     -19.176 -10.993 -12.889  1.00  0.00    -0.003 C 
ATOM     32  C   UNL     1     -20.301 -12.024 -12.988  1.00  0.00     0.004 C 
ENDBRANCH  30  31
ENDBRANCH  29  30
ENDBRANCH  28  29
ENDBRANCH  27  28
ENDBRANCH  26  27
ENDBRANCH  25  26
ENDBRANCH  24  25
ENDBRANCH  23  24
ENDBRANCH  22  23
ENDBRANCH  21  22
ENDBRANCH  20  21
ENDBRANCH  19  20
ENDBRANCH  18  19
ENDBRANCH   1  18
TORSDOF 28
ENDMDL
MODEL 2
REMARK VINA RESULT:    -6.473      0.951      2.374
REMARK INTER + INTRA:         -19.663
REMARK INTER:                 -16.848
REMARK INTRA:                  -2.816
REMARK UNBOUND:                -2.594
REMARK SMILES CCCCCCCCCCCCCCCCCCCCCCCCCCCCCC(=O)[O-]
REMARK SMILES IDX 16 1 17 2 18 3 19 4 20 5 21 6 22 7 23 8 24 9 25 10 26 11
REMARK SMILES IDX 27 12 28 13 29 14 30 15 31 16 32 17 15 18 14 19 13 20 12 21
REMARK SMILES IDX 11 22 10 23 9 24 8 25 7 26 6 27 5 28 4 29 3 30 2 31 1 32
REMARK H PARENT
REMARK Flexibility Score: inf
ROOT
ATOM      1  C   UNL     1     -15.437  -8.221  -6.600  1.00  0.00     0.000 C 
ENDROOT
BRANCH   1   2
ATOM      2  C   UNL     1     -14.047  -8.260  -7.262  1.00  0.00     0.000 C 
BRANCH   2   3
ATOM      3  C   UNL     1     -13.376  -9.647  -7.257  1.00  0.00     0.000 C 
BRANCH   3   4
ATOM      4  C   UNL     1     -12.327  -9.794  -6.139  1.00  0.00     0.000 C 
BRANCH   4   5
ATOM      5  C   UNL     1     -12.432 -11.142  -5.407  1.00  0.00     0.000 C 
BRANCH   5   6
ATOM      6  C   UNL     1     -12.114 -11.017  -3.906  1.00  0.00     0.000 C 
BRANCH   6   7
ATOM      7  C   UNL     1     -11.392 -12.252  -3.347  1.00  0.00     0.000 C 
BRANCH   7   8
ATOM      8  C   UNL     1     -11.755 -12.531  -1.878  1.00  0.00     0.000 C 
BRANCH   8   9
ATOM      9  C   UNL     1     -10.945 -11.668  -0.897  1.00  0.00     0.000 C 
BRANCH   9  10
ATOM     10  C   UNL     1      -9.983 -12.504  -0.035  1.00  0.00     0.000 C 
BRANCH  10  11
ATOM     11  C   UNL     1      -8.514 -12.070  -0.188  1.00  0.00     0.000 C 
BRANCH  11  12
ATOM     12  C   UNL     1      -7.683 -13.009  -1.087  1.00  0.00     0.000 C 
BRANCH  12  13
ATOM     13  C   UNL     1      -8.305 -14.412  -1.191  1.00  0.00     0.006 C 
BRANCH  13  14
ATOM     14  C   UNL     1      -7.241 -15.516  -1.233  1.00  0.00     0.053 C 
BRANCH  14  15
ATOM     15  C   UNL     1      -7.769 -16.765  -1.872  1.00  0.00     0.041 C 
ATOM     16  O   UNL     1      -8.416 -17.603  -1.189  1.00  0.00    -0.550 OA
ATOM     17  O   UNL     1      -7.519 -17.017  -3.215  1.00  0.00    -0.550 OA
ENDBRANCH  14  15
ENDBRANCH  13  14
ENDBRANCH  12  13
ENDBRANCH  11  12
ENDBRANCH  10  11
ENDBRANCH   9  10
ENDBRANCH   8   9
ENDBRANCH   7   8
ENDBRANCH   6   7
ENDBRANCH   5   6
ENDBRANCH   4   5
ENDBRANCH   3   4
ENDBRANCH   2   3
ENDBRANCH   1   2
BRANCH   1  18
ATOM     18  C   UNL     1     -15.734  -9.483  -5.770  1.00  0.00     0.000 C 
BRANCH  18  19
ATOM     19  C   UNL     1     -16.899 -10.313  -6.350  1.00  0.00     0.000 C 
BRANCH  19  20
ATOM     20  C   UNL     1     -16.568 -11.807  -6.531  1.00  0.00     0.000 C 
BRANCH  20  21
ATOM     21  C   UNL     1     -15.264 -12.108  -7.296  1.00  0.00     0.000 C 
BRANCH  21  22
ATOM     22  C   UNL     1     -15.379 -13.133  -8.444  1.00  0.00     0.000 C 
BRANCH  22  23
ATOM     23  C   UNL     1     -14.923 -12.626  -9.832  1.00  0.00     0.000 C 
BRANCH  23  24
ATOM     24  C   UNL     1     -15.833 -11.541 -10.437  1.00  0.00    -0.000 C 
BRANCH  24  25
ATOM     25  C   UNL     1     -15.626 -10.123  -9.875  1.00  0.00    -0.000 C 
BRANCH  25  26
ATOM     26  C   UNL     1     -16.715  -9.097 -10.253  1.00  0.00    -0.000 C 
BRANCH  26  27
ATOM     27  C   UNL     1     -17.810  -8.879  -9.193  1.00  0.00    -0.000 C 
BRANCH  27  28
ATOM     28  C   UNL     1     -19.176  -9.443  -9.621  1.00  0.00    -0.000 C 
BRANCH  28  29
ATOM     29  C   UNL     1     -19.234  -9.760 -11.125  1.00  0.00    -0.000 C 
BRANCH  29  30
ATOM     30  C   UNL     1     -19.538 -11.242 -11.404  1.00  0.00    -0.000 C 
BRANCH  30  31
ATOM     31  C   UNL     1     -19.419 -11.596 -12.894  1.00  0.00    -0.003 C 
ATOM     32  C   UNL     1     -20.765 -11.576 -13.618  1.00  0.00     0.004 C 
ENDBRANCH  30  31
ENDBRANCH  29  30
ENDBRANCH  28  29
ENDBRANCH  27  28
ENDBRANCH  26  27
ENDBRANCH  25  26
ENDBRANCH  24  25
ENDBRANCH  23  24
ENDBRANCH  22  23
ENDBRANCH  21  22
ENDBRANCH  20  21
ENDBRANCH  19  20
ENDBRANCH  18  19
ENDBRANCH   1  18
TORSDOF 28
ENDMDL
MODEL 3
REMARK VINA RESULT:    -6.383      4.756     11.524
REMARK INTER + INTRA:         -19.425
REMARK INTER:                 -16.846
REMARK INTRA:                  -2.579
REMARK UNBOUND:                -2.594
REMARK SMILES CCCCCCCCCCCCCCCCCCCCCCCCCCCCCC(=O)[O-]
REMARK SMILES IDX 16 1 17 2 18 3 19 4 20 5 21 6 22 7 23 8 24 9 25 10 26 11
REMARK SMILES IDX 27 12 28 13 29 14 30 15 31 16 32 17 15 18 14 19 13 20 12 21
REMARK SMILES IDX 11 22 10 23 9 24 8 25 7 26 6 27 5 28 4 29 3 30 2 31 1 32
REMARK H PARENT
REMARK Flexibility Score: inf
ROOT
ATOM      1  C   UNL     1     -14.898  -7.937  -7.503  1.00  0.00     0.000 C 
ENDROOT
BRANCH   1   2
ATOM      2  C   UNL     1     -16.121  -8.129  -8.421  1.00  0.00     0.000 C 
BRANCH   2   3
ATOM      3  C   UNL     1     -17.443  -8.394  -7.675  1.00  0.00     0.000 C 
BRANCH   3   4
ATOM      4  C   UNL     1     -17.751  -9.895  -7.530  1.00  0.00     0.000 C 
BRANCH   4   5
ATOM      5  C   UNL     1     -17.318 -10.455  -6.164  1.00  0.00     0.000 C 
BRANCH   5   6
ATOM      6  C   UNL     1     -16.591 -11.806  -6.292  1.00  0.00     0.000 C 
BRANCH   6   7
ATOM      7  C   UNL     1     -15.308 -11.713  -7.130  1.00  0.00     0.000 C 
BRANCH   7   8
ATOM      8  C   UNL     1     -15.168 -12.880  -8.123  1.00  0.00     0.000 C 
BRANCH   8   9
ATOM      9  C   UNL     1     -14.667 -12.422  -9.503  1.00  0.00     0.000 C 
BRANCH   9  10
ATOM     10  C   UNL     1     -15.820 -12.120 -10.476  1.00  0.00     0.000 C 
BRANCH  10  11
ATOM     11  C   UNL     1     -16.183 -10.625 -10.524  1.00  0.00     0.000 C 
BRANCH  11  12
ATOM     12  C   UNL     1     -17.625 -10.355 -11.005  1.00  0.00     0.000 C 
BRANCH  12  13
ATOM     13  C   UNL     1     -18.163 -11.493 -11.888  1.00  0.00     0.006 C 
BRANCH  13  14
ATOM     14  C   UNL     1     -19.672 -11.701 -11.708  1.00  0.00     0.053 C 
BRANCH  14  15
ATOM     15  C   UNL     1     -20.454 -11.036 -12.801  1.00  0.00     0.041 C 
ATOM     16  O   UNL     1     -20.575 -11.592 -13.924  1.00  0.00    -0.550 OA
ATOM     17  O   UNL     1     -21.023  -9.787 -12.586  1.00  0.00    -0.550 OA
ENDBRANCH  14  15
ENDBRANCH  13  14
ENDBRANCH  12  13
ENDBRANCH  11  12
ENDBRANCH  10  11
ENDBRANCH   9  10
ENDBRANCH   8   9
ENDBRANCH   7   8
ENDBRANCH   6   7
ENDBRANCH   5   6
ENDBRANCH   4   5
ENDBRANCH   3   4
ENDBRANCH   2   3
ENDBRANCH   1   2
BRANCH   1  18
ATOM     18  C   UNL     1     -13.911  -9.115  -7.576  1.00  0.00     0.000 C 
BRANCH  18  19
ATOM     19  C   UNL     1     -12.576  -8.814  -6.862  1.00  0.00     0.000 C 
BRANCH  19  20
ATOM     20  C   UNL     1     -11.840 -10.072  -6.362  1.00  0.00     0.000 C 
BRANCH  20  21
ATOM     21  C   UNL     1     -12.582 -10.888  -5.284  1.00  0.00     0.000 C 
BRANCH  21  22
ATOM     22  C   UNL     1     -11.688 -11.700  -4.322  1.00  0.00     0.000 C 
BRANCH  22  23
ATOM     23  C   UNL     1     -12.017 -11.539  -2.821  1.00  0.00     0.000 C 
BRANCH  23  24
ATOM     24  C   UNL     1     -11.249 -12.505  -1.899  1.00  0.00    -0.000 C 
BRANCH  24  25
ATOM     25  C   UNL     1     -10.846 -11.923  -0.532  1.00  0.00    -0.000 C 
BRANCH  25  26
ATOM     26  C   UNL     1      -9.670 -12.637   0.168  1.00  0.00    -0.000 C 
BRANCH  26  27
ATOM     27  C   UNL     1      -8.267 -12.171  -0.263  1.00  0.00    -0.000 C 
BRANCH  27  28
ATOM     28  C   UNL     1      -7.442 -13.290  -0.922  1.00  0.00    -0.000 C 
BRANCH  28  29
ATOM     29  C   UNL     1      -8.181 -14.638  -0.926  1.00  0.00    -0.000 C 
BRANCH  29  30
ATOM     30  C   UNL     1      -8.458 -15.155  -2.348  1.00  0.00    -0.000 C 
BRANCH  30  31
ATOM     31  C   UNL     1      -7.960 -16.594  -2.559  1.00  0.00    -0.003 C 
ATOM     32  C   UNL     1      -8.000 -17.428  -1.278  1.00  0.00     0.004 C 
ENDBRANCH  30  31
ENDBRANCH  29  30
ENDBRANCH  28  29
ENDBRANCH  27  28
ENDBRANCH  26  27
ENDBRANCH  25  26
ENDBRANCH  24  25
ENDBRANCH  23  24
ENDBRANCH  22  23
ENDBRANCH  21  22
ENDBRANCH  20  21
ENDBRANCH  19  20
ENDBRANCH  18  19
ENDBRANCH   1  18
TORSDOF 28
ENDMDL
MODEL 4
REMARK VINA RESULT:    -6.192      0.946      2.160
REMARK INTER + INTRA:         -18.921
REMARK INTER:                 -15.988
REMARK INTRA:                  -2.933
REMARK UNBOUND:                -2.594
REMARK SMILES CCCCCCCCCCCCCCCCCCCCCCCCCCCCCC(=O)[O-]
REMARK SMILES IDX 16 1 17 2 18 3 19 4 20 5 21 6 22 7 23 8 24 9 25 10 26 11
REMARK SMILES IDX 27 12 28 13 29 14 30 15 31 16 32 17 15 18 14 19 13 20 12 21
REMARK SMILES IDX 11 22 10 23 9 24 8 25 7 26 6 27 5 28 4 29 3 30 2 31 1 32
REMARK H PARENT
REMARK Flexibility Score: inf
ROOT
ATOM      1  C   UNL     1     -13.821 -10.709  -8.075  1.00  0.00     0.000 C 
ENDROOT
BRANCH   1   2
ATOM      2  C   UNL     1     -12.918  -9.987  -7.058  1.00  0.00     0.000 C 
BRANCH   2   3
ATOM      3  C   UNL     1     -13.169 -10.380  -5.590  1.00  0.00     0.000 C 
BRANCH   3   4
ATOM      4  C   UNL     1     -12.026 -11.224  -4.998  1.00  0.00     0.000 C 
BRANCH   4   5
ATOM      5  C   UNL     1     -12.023 -11.215  -3.460  1.00  0.00     0.000 C 
BRANCH   5   6
ATOM      6  C   UNL     1     -11.334 -12.459  -2.871  1.00  0.00     0.000 C 
BRANCH   6   7
ATOM      7  C   UNL     1     -11.476 -12.548  -1.344  1.00  0.00     0.000 C 
BRANCH   7   8
ATOM      8  C   UNL     1     -10.887 -11.322  -0.625  1.00  0.00     0.000 C 
BRANCH   8   9
ATOM      9  C   UNL     1      -9.883 -11.710   0.473  1.00  0.00     0.000 C 
BRANCH   9  10
ATOM     10  C   UNL     1      -8.427 -11.424   0.066  1.00  0.00     0.000 C 
BRANCH  10  11
ATOM     11  C   UNL     1      -7.791 -12.581  -0.725  1.00  0.00     0.000 C 
BRANCH  11  12
ATOM     12  C   UNL     1      -8.485 -13.940  -0.498  1.00  0.00     0.000 C 
BRANCH  12  13
ATOM     13  C   UNL     1      -8.530 -14.788  -1.781  1.00  0.00     0.006 C 
BRANCH  13  14
ATOM     14  C   UNL     1      -7.299 -15.694  -1.918  1.00  0.00     0.053 C 
BRANCH  14  15
ATOM     15  C   UNL     1      -7.676 -17.145  -1.874  1.00  0.00     0.041 C 
ATOM     16  O   UNL     1      -8.321 -17.604  -0.894  1.00  0.00    -0.550 OA
ATOM     17  O   UNL     1      -7.289 -17.994  -2.903  1.00  0.00    -0.550 OA
ENDBRANCH  14  15
ENDBRANCH  13  14
ENDBRANCH  12  13
ENDBRANCH  11  12
ENDBRANCH  10  11
ENDBRANCH   9  10
ENDBRANCH   8   9
ENDBRANCH   7   8
ENDBRANCH   6   7
ENDBRANCH   5   6
ENDBRANCH   4   5
ENDBRANCH   3   4
ENDBRANCH   2   3
ENDBRANCH   1   2
BRANCH   1  18
ATOM     18  C   UNL     1     -14.413 -12.016  -7.520  1.00  0.00     0.000 C 
BRANCH  18  19
ATOM     19  C   UNL     1     -15.947 -12.086  -7.675  1.00  0.00     0.000 C 
BRANCH  19  20
ATOM     20  C   UNL     1     -16.721 -11.675  -6.407  1.00  0.00     0.000 C 
BRANCH  20  21
ATOM     21  C   UNL     1     -17.409 -10.296  -6.470  1.00  0.00     0.000 C 
BRANCH  21  22
ATOM     22  C   UNL     1     -16.542  -9.093  -6.043  1.00  0.00     0.000 C 
BRANCH  22  23
ATOM     23  C   UNL     1     -15.845  -8.338  -7.197  1.00  0.00     0.000 C 
BRANCH  23  24
ATOM     24  C   UNL     1     -16.792  -7.911  -8.335  1.00  0.00    -0.000 C 
BRANCH  24  25
ATOM     25  C   UNL     1     -16.585  -8.647  -9.671  1.00  0.00    -0.000 C 
BRANCH  25  26
ATOM     26  C   UNL     1     -17.675  -9.678 -10.033  1.00  0.00    -0.000 C 
BRANCH  26  27
ATOM     27  C   UNL     1     -17.191 -10.883 -10.860  1.00  0.00    -0.000 C 
BRANCH  27  28
ATOM     28  C   UNL     1     -18.350 -11.713 -11.440  1.00  0.00    -0.000 C 
BRANCH  28  29
ATOM     29  C   UNL     1     -19.710 -11.014 -11.277  1.00  0.00    -0.000 C 
BRANCH  29  30
ATOM     30  C   UNL     1     -20.277 -10.510 -12.616  1.00  0.00    -0.000 C 
BRANCH  30  31
ATOM     31  C   UNL     1     -20.183 -11.565 -13.729  1.00  0.00    -0.003 C 
ATOM     32  C   UNL     1     -21.471 -12.371 -13.893  1.00  0.00     0.004 C 
ENDBRANCH  30  31
ENDBRANCH  29  30
ENDBRANCH  28  29
ENDBRANCH  27  28
ENDBRANCH  26  27
ENDBRANCH  25  26
ENDBRANCH  24  25
ENDBRANCH  23  24
ENDBRANCH  22  23
ENDBRANCH  21  22
ENDBRANCH  20  21
ENDBRANCH  19  20
ENDBRANCH  18  19
ENDBRANCH   1  18
TORSDOF 28
ENDMDL
MODEL 5
REMARK VINA RESULT:    -6.113      4.293      6.116
REMARK INTER + INTRA:         -18.715
REMARK INTER:                 -15.957
REMARK INTRA:                  -2.758
REMARK UNBOUND:                -2.594
REMARK SMILES CCCCCCCCCCCCCCCCCCCCCCCCCCCCCC(=O)[O-]
REMARK SMILES IDX 16 1 17 2 18 3 19 4 20 5 21 6 22 7 23 8 24 9 25 10 26 11
REMARK SMILES IDX 27 12 28 13 29 14 30 15 31 16 32 17 15 18 14 19 13 20 12 21
REMARK SMILES IDX 11 22 10 23 9 24 8 25 7 26 6 27 5 28 4 29 3 30 2 31 1 32
REMARK H PARENT
REMARK Flexibility Score: inf
ROOT
ATOM      1  C   UNL     1     -11.762 -11.731  -4.301  1.00  0.00     0.000 C 
ENDROOT
BRANCH   1   2
ATOM      2  C   UNL     1     -11.795 -11.796  -2.762  1.00  0.00     0.000 C 
BRANCH   2   3
ATOM      3  C   UNL     1     -11.051 -13.004  -2.160  1.00  0.00     0.000 C 
BRANCH   3   4
ATOM      4  C   UNL     1      -9.546 -12.739  -1.971  1.00  0.00     0.000 C 
BRANCH   4   5
ATOM      5  C   UNL     1      -9.042 -13.173  -0.584  1.00  0.00     0.000 C 
BRANCH   5   6
ATOM      6  C   UNL     1      -9.703 -12.373   0.553  1.00  0.00     0.000 C 
BRANCH   6   7
ATOM      7  C   UNL     1      -9.815 -10.874   0.238  1.00  0.00     0.000 C 
BRANCH   7   8
ATOM      8  C   UNL     1      -8.544 -10.096   0.622  1.00  0.00     0.000 C 
BRANCH   8   9
ATOM      9  C   UNL     1      -8.768  -8.575   0.640  1.00  0.00     0.000 C 
BRANCH   9  10
ATOM     10  C   UNL     1      -7.516  -7.802   1.088  1.00  0.00     0.000 C 
BRANCH  10  11
ATOM     11  C   UNL     1      -6.298  -8.063   0.184  1.00  0.00     0.000 C 
BRANCH  11  12
ATOM     12  C   UNL     1      -5.213  -6.970   0.279  1.00  0.00     0.000 C 
BRANCH  12  13
ATOM     13  C   UNL     1      -5.782  -5.630   0.777  1.00  0.00     0.006 C 
BRANCH  13  14
ATOM     14  C   UNL     1      -5.634  -4.515  -0.266  1.00  0.00     0.053 C 
BRANCH  14  15
ATOM     15  C   UNL     1      -6.481  -4.777  -1.475  1.00  0.00     0.041 C 
ATOM     16  O   UNL     1      -7.737  -4.750  -1.388  1.00  0.00    -0.550 OA
ATOM     17  O   UNL     1      -5.881  -5.078  -2.691  1.00  0.00    -0.550 OA
ENDBRANCH  14  15
ENDBRANCH  13  14
ENDBRANCH  12  13
ENDBRANCH  11  12
ENDBRANCH  10  11
ENDBRANCH   9  10
ENDBRANCH   8   9
ENDBRANCH   7   8
ENDBRANCH   6   7
ENDBRANCH   5   6
ENDBRANCH   4   5
ENDBRANCH   3   4
ENDBRANCH   2   3
ENDBRANCH   1   2
BRANCH   1  18
ATOM     18  C   UNL     1     -12.684 -10.638  -4.868  1.00  0.00     0.000 C 
BRANCH  18  19
ATOM     19  C   UNL     1     -12.225 -10.135  -6.254  1.00  0.00     0.000 C 
BRANCH  19  20
ATOM     20  C   UNL     1     -13.375  -9.958  -7.264  1.00  0.00     0.000 C 
BRANCH  20  21
ATOM     21  C   UNL     1     -14.037  -8.565  -7.275  1.00  0.00     0.000 C 
BRANCH  21  22
ATOM     22  C   UNL     1     -15.515  -8.519  -6.830  1.00  0.00     0.000 C 
BRANCH  22  23
ATOM     23  C   UNL     1     -16.139  -9.887  -6.471  1.00  0.00     0.000 C 
BRANCH  23  24
ATOM     24  C   UNL     1     -17.540 -10.118  -7.068  1.00  0.00    -0.000 C 
BRANCH  24  25
ATOM     25  C   UNL     1     -18.074  -8.974  -7.948  1.00  0.00    -0.000 C 
BRANCH  25  26
ATOM     26  C   UNL     1     -18.681  -9.407  -9.299  1.00  0.00    -0.000 C 
BRANCH  26  27
ATOM     27  C   UNL     1     -17.661  -9.697 -10.416  1.00  0.00    -0.000 C 
BRANCH  27  28
ATOM     28  C   UNL     1     -17.835 -11.095 -11.035  1.00  0.00    -0.000 C 
BRANCH  28  29
ATOM     29  C   UNL     1     -16.529 -11.908 -11.020  1.00  0.00    -0.000 C 
BRANCH  29  30
ATOM     30  C   UNL     1     -15.407 -11.208 -10.234  1.00  0.00    -0.000 C 
BRANCH  30  31
ATOM     31  C   UNL     1     -14.530 -12.199  -9.454  1.00  0.00    -0.003 C 
ATOM     32  C   UNL     1     -15.325 -13.032  -8.448  1.00  0.00     0.004 C 
ENDBRANCH  30  31
ENDBRANCH  29  30
ENDBRANCH  28  29
ENDBRANCH  27  28
ENDBRANCH  26  27
ENDBRANCH  25  26
ENDBRANCH  24  25
ENDBRANCH  23  24
ENDBRANCH  22  23
ENDBRANCH  21  22
ENDBRANCH  20  21
ENDBRANCH  19  20
ENDBRANCH  18  19
ENDBRANCH   1  18
TORSDOF 28
ENDMDL
MODEL 6
REMARK VINA RESULT:    -6.021      4.784     12.298
REMARK INTER + INTRA:         -18.472
REMARK INTER:                 -15.894
REMARK INTRA:                  -2.578
REMARK UNBOUND:                -2.594
REMARK SMILES CCCCCCCCCCCCCCCCCCCCCCCCCCCCCC(=O)[O-]
REMARK SMILES IDX 16 1 17 2 18 3 19 4 20 5 21 6 22 7 23 8 24 9 25 10 26 11
REMARK SMILES IDX 27 12 28 13 29 14 30 15 31 16 32 17 15 18 14 19 13 20 12 21
REMARK SMILES IDX 11 22 10 23 9 24 8 25 7 26 6 27 5 28 4 29 3 30 2 31 1 32
REMARK H PARENT
REMARK Flexibility Score: inf
ROOT
ATOM      1  C   UNL     1     -11.772 -11.379  -5.008  1.00  0.00     0.000 C 
ENDROOT
BRANCH   1   2
ATOM      2  C   UNL     1     -12.867 -10.364  -5.389  1.00  0.00     0.000 C 
BRANCH   2   3
ATOM      3  C   UNL     1     -12.868  -9.957  -6.875  1.00  0.00     0.000 C 
BRANCH   3   4
ATOM      4  C   UNL     1     -13.919 -10.724  -7.699  1.00  0.00     0.000 C 
BRANCH   4   5
ATOM      5  C   UNL     1     -14.720 -11.722  -6.847  1.00  0.00     0.000 C 
BRANCH   5   6
ATOM      6  C   UNL     1     -16.208 -11.342  -6.747  1.00  0.00     0.000 C 
BRANCH   6   7
ATOM      7  C   UNL     1     -16.424  -9.931  -6.179  1.00  0.00     0.000 C 
BRANCH   7   8
ATOM      8  C   UNL     1     -17.384  -9.091  -7.039  1.00  0.00     0.000 C 
BRANCH   8   9
ATOM      9  C   UNL     1     -16.654  -8.308  -8.142  1.00  0.00     0.000 C 
BRANCH   9  10
ATOM     10  C   UNL     1     -17.075  -8.750  -9.554  1.00  0.00     0.000 C 
BRANCH  10  11
ATOM     11  C   UNL     1     -16.375 -10.044 -10.008  1.00  0.00     0.000 C 
BRANCH  11  12
ATOM     12  C   UNL     1     -17.331 -11.068 -10.656  1.00  0.00     0.000 C 
BRANCH  12  13
ATOM     13  C   UNL     1     -18.586 -10.400 -11.242  1.00  0.00     0.006 C 
BRANCH  13  14
ATOM     14  C   UNL     1     -18.902 -10.901 -12.657  1.00  0.00     0.053 C 
BRANCH  14  15
ATOM     15  C   UNL     1     -20.378 -10.927 -12.915  1.00  0.00     0.041 C 
ATOM     16  O   UNL     1     -21.102  -9.961 -12.557  1.00  0.00    -0.550 OA
ATOM     17  O   UNL     1     -20.957 -12.033 -13.524  1.00  0.00    -0.550 OA
ENDBRANCH  14  15
ENDBRANCH  13  14
ENDBRANCH  12  13
ENDBRANCH  11  12
ENDBRANCH  10  11
ENDBRANCH   9  10
ENDBRANCH   8   9
ENDBRANCH   7   8
ENDBRANCH   6   7
ENDBRANCH   5   6
ENDBRANCH   4   5
ENDBRANCH   3   4
ENDBRANCH   2   3
ENDBRANCH   1   2
BRANCH   1  18
ATOM     18  C   UNL     1     -12.132 -12.197  -3.755  1.00  0.00     0.000 C 
BRANCH  18  19
ATOM     19  C   UNL     1     -11.068 -12.078  -2.643  1.00  0.00     0.000 C 
BRANCH  19  20
ATOM     20  C   UNL     1     -11.654 -11.761  -1.253  1.00  0.00     0.000 C 
BRANCH  20  21
ATOM     21  C   UNL     1     -10.718 -10.987  -0.302  1.00  0.00     0.000 C 
BRANCH  21  22
ATOM     22  C   UNL     1      -9.822 -11.853   0.610  1.00  0.00     0.000 C 
BRANCH  22  23
ATOM     23  C   UNL     1      -9.860 -13.371   0.324  1.00  0.00     0.000 C 
BRANCH  23  24
ATOM     24  C   UNL     1      -8.813 -13.847  -0.701  1.00  0.00    -0.000 C 
BRANCH  24  25
ATOM     25  C   UNL     1      -7.688 -12.841  -1.004  1.00  0.00    -0.000 C 
BRANCH  25  26
ATOM     26  C   UNL     1      -6.277 -13.274  -0.555  1.00  0.00    -0.000 C 
BRANCH  26  27
ATOM     27  C   UNL     1      -6.014 -14.790  -0.582  1.00  0.00    -0.000 C 
BRANCH  27  28
ATOM     28  C   UNL     1      -5.080 -15.215  -1.729  1.00  0.00    -0.000 C 
BRANCH  28  29
ATOM     29  C   UNL     1      -5.774 -16.150  -2.734  1.00  0.00    -0.000 C 
BRANCH  29  30
ATOM     30  C   UNL     1      -7.283 -16.287  -2.466  1.00  0.00    -0.000 C 
BRANCH  30  31
ATOM     31  C   UNL     1      -7.673 -17.703  -2.014  1.00  0.00    -0.003 C 
ATOM     32  C   UNL     1      -8.138 -17.753  -0.558  1.00  0.00     0.004 C 
ENDBRANCH  30  31
ENDBRANCH  29  30
ENDBRANCH  28  29
ENDBRANCH  27  28
ENDBRANCH  26  27
ENDBRANCH  25  26
ENDBRANCH  24  25
ENDBRANCH  23  24
ENDBRANCH  22  23
ENDBRANCH  21  22
ENDBRANCH  20  21
ENDBRANCH  19  20
ENDBRANCH  18  19
ENDBRANCH   1  18
TORSDOF 28
ENDMDL
MODEL 7
REMARK VINA RESULT:    -5.947      4.485     11.494
REMARK INTER + INTRA:         -18.276
REMARK INTER:                 -15.456
REMARK INTRA:                  -2.820
REMARK UNBOUND:                -2.594
REMARK SMILES CCCCCCCCCCCCCCCCCCCCCCCCCCCCCC(=O)[O-]
REMARK SMILES IDX 16 1 17 2 18 3 19 4 20 5 21 6 22 7 23 8 24 9 25 10 26 11
REMARK SMILES IDX 27 12 28 13 29 14 30 15 31 16 32 17 15 18 14 19 13 20 12 21
REMARK SMILES IDX 11 22 10 23 9 24 8 25 7 26 6 27 5 28 4 29 3 30 2 31 1 32
REMARK H PARENT
REMARK Flexibility Score: inf
ROOT
ATOM      1  C   UNL     1     -12.679  -9.388  -6.497  1.00  0.00     0.000 C 
ENDROOT
BRANCH   1   2
ATOM      2  C   UNL     1     -13.827  -9.197  -7.506  1.00  0.00     0.000 C 
BRANCH   2   3
ATOM      3  C   UNL     1     -14.711  -7.963  -7.239  1.00  0.00     0.000 C 
BRANCH   3   4
ATOM      4  C   UNL     1     -16.204  -8.320  -7.118  1.00  0.00     0.000 C 
BRANCH   4   5
ATOM      5  C   UNL     1     -16.455  -9.475  -6.135  1.00  0.00     0.000 C 
BRANCH   5   6
ATOM      6  C   UNL     1     -17.099 -10.695  -6.819  1.00  0.00     0.000 C 
BRANCH   6   7
ATOM      7  C   UNL     1     -16.301 -11.989  -6.600  1.00  0.00     0.000 C 
BRANCH   7   8
ATOM      8  C   UNL     1     -15.076 -12.088  -7.526  1.00  0.00     0.000 C 
BRANCH   8   9
ATOM      9  C   UNL     1     -15.263 -13.130  -8.640  1.00  0.00     0.000 C 
BRANCH   9  10
ATOM     10  C   UNL     1     -15.614 -12.487  -9.993  1.00  0.00     0.000 C 
BRANCH  10  11
ATOM     11  C   UNL     1     -15.226 -11.000 -10.066  1.00  0.00     0.000 C 
BRANCH  11  12
ATOM     12  C   UNL     1     -16.427 -10.059 -10.301  1.00  0.00     0.000 C 
BRANCH  12  13
ATOM     13  C   UNL     1     -17.744 -10.834 -10.477  1.00  0.00     0.006 C 
BRANCH  13  14
ATOM     14  C   UNL     1     -18.920  -9.908 -10.812  1.00  0.00     0.053 C 
BRANCH  14  15
ATOM     15  C   UNL     1     -19.609 -10.329 -12.075  1.00  0.00     0.041 C 
ATOM     16  O   UNL     1     -19.011 -11.053 -12.914  1.00  0.00    -0.550 OA
ATOM     17  O   UNL     1     -20.902  -9.895 -12.338  1.00  0.00    -0.550 OA
ENDBRANCH  14  15
ENDBRANCH  13  14
ENDBRANCH  12  13
ENDBRANCH  11  12
ENDBRANCH  10  11
ENDBRANCH   9  10
ENDBRANCH   8   9
ENDBRANCH   7   8
ENDBRANCH   6   7
ENDBRANCH   5   6
ENDBRANCH   4   5
ENDBRANCH   3   4
ENDBRANCH   2   3
ENDBRANCH   1   2
BRANCH   1  18
ATOM     18  C   UNL     1     -12.887 -10.612  -5.587  1.00  0.00     0.000 C 
BRANCH  18  19
ATOM     19  C   UNL     1     -11.570 -11.115  -4.959  1.00  0.00     0.000 C 
BRANCH  19  20
ATOM     20  C   UNL     1     -11.772 -12.138  -3.825  1.00  0.00     0.000 C 
BRANCH  20  21
ATOM     21  C   UNL     1     -12.188 -11.544  -2.464  1.00  0.00     0.000 C 
BRANCH  21  22
ATOM     22  C   UNL     1     -11.444 -12.101  -1.231  1.00  0.00     0.000 C 
BRANCH  22  23
ATOM     23  C   UNL     1     -10.806 -11.038  -0.308  1.00  0.00     0.000 C 
BRANCH  23  24
ATOM     24  C   UNL     1      -9.679 -11.578   0.592  1.00  0.00    -0.000 C 
BRANCH  24  25
ATOM     25  C   UNL     1      -8.252 -11.350   0.062  1.00  0.00    -0.000 C 
BRANCH  25  26
ATOM     26  C   UNL     1      -7.573 -12.589  -0.560  1.00  0.00    -0.000 C 
BRANCH  26  27
ATOM     27  C   UNL     1      -8.438 -13.862  -0.599  1.00  0.00    -0.000 C 
BRANCH  27  28
ATOM     28  C   UNL     1      -8.917 -14.217  -2.018  1.00  0.00    -0.000 C 
BRANCH  28  29
ATOM     29  C   UNL     1      -8.294 -15.524  -2.537  1.00  0.00    -0.000 C 
BRANCH  29  30
ATOM     30  C   UNL     1      -8.491 -16.698  -1.562  1.00  0.00    -0.000 C 
BRANCH  30  31
ATOM     31  C   UNL     1      -7.474 -17.827  -1.790  1.00  0.00    -0.003 C 
ATOM     32  C   UNL     1      -6.907 -17.838  -3.209  1.00  0.00     0.004 C 
ENDBRANCH  30  31
ENDBRANCH  29  30
ENDBRANCH  28  29
ENDBRANCH  27  28
ENDBRANCH  26  27
ENDBRANCH  25  26
ENDBRANCH  24  25
ENDBRANCH  23  24
ENDBRANCH  22  23
ENDBRANCH  21  22
ENDBRANCH  20  21
ENDBRANCH  19  20
ENDBRANCH  18  19
ENDBRANCH   1  18
TORSDOF 28
ENDMDL
MODEL 8
REMARK VINA RESULT:    -5.917      4.125      5.210
REMARK INTER + INTRA:         -18.197
REMARK INTER:                 -15.416
REMARK INTRA:                  -2.781
REMARK UNBOUND:                -2.594
REMARK SMILES CCCCCCCCCCCCCCCCCCCCCCCCCCCCCC(=O)[O-]
REMARK SMILES IDX 16 1 17 2 18 3 19 4 20 5 21 6 22 7 23 8 24 9 25 10 26 11
REMARK SMILES IDX 27 12 28 13 29 14 30 15 31 16 32 17 15 18 14 19 13 20 12 21
REMARK SMILES IDX 11 22 10 23 9 24 8 25 7 26 6 27 5 28 4 29 3 30 2 31 1 32
REMARK H PARENT
REMARK Flexibility Score: inf
ROOT
ATOM      1  C   UNL     1     -12.191  -9.878  -6.526  1.00  0.00     0.000 C 
ENDROOT
BRANCH   1   2
ATOM      2  C   UNL     1     -12.798 -10.752  -5.412  1.00  0.00     0.000 C 
BRANCH   2   3
ATOM      3  C   UNL     1     -11.778 -11.636  -4.668  1.00  0.00     0.000 C 
BRANCH   3   4
ATOM      4  C   UNL     1     -12.040 -11.695  -3.153  1.00  0.00     0.000 C 
BRANCH   4   5
ATOM      5  C   UNL     1     -10.998 -12.546  -2.408  1.00  0.00     0.000 C 
BRANCH   5   6
ATOM      6  C   UNL     1     -11.055 -12.336  -0.884  1.00  0.00     0.000 C 
BRANCH   6   7
ATOM      7  C   UNL     1      -9.678 -12.030  -0.275  1.00  0.00     0.000 C 
BRANCH   7   8
ATOM      8  C   UNL     1      -9.692 -10.772   0.610  1.00  0.00     0.000 C 
BRANCH   8   9
ATOM      9  C   UNL     1      -8.348 -10.027   0.596  1.00  0.00     0.000 C 
BRANCH   9  10
ATOM     10  C   UNL     1      -8.522  -8.498   0.607  1.00  0.00     0.000 C 
BRANCH  10  11
ATOM     11  C   UNL     1      -7.279  -7.759   1.133  1.00  0.00     0.000 C 
BRANCH  11  12
ATOM     12  C   UNL     1      -6.081  -7.797   0.160  1.00  0.00     0.000 C 
BRANCH  12  13
ATOM     13  C   UNL     1      -5.499  -6.396  -0.096  1.00  0.00     0.006 C 
BRANCH  13  14
ATOM     14  C   UNL     1      -6.122  -5.727  -1.328  1.00  0.00     0.053 C 
BRANCH  14  15
ATOM     15  C   UNL     1      -7.255  -4.822  -0.948  1.00  0.00     0.041 C 
ATOM     16  O   UNL     1      -8.071  -4.425  -1.822  1.00  0.00    -0.550 OA
ATOM     17  O   UNL     1      -7.391  -4.394   0.366  1.00  0.00    -0.550 OA
ENDBRANCH  14  15
ENDBRANCH  13  14
ENDBRANCH  12  13
ENDBRANCH  11  12
ENDBRANCH  10  11
ENDBRANCH   9  10
ENDBRANCH   8   9
ENDBRANCH   7   8
ENDBRANCH   6   7
ENDBRANCH   5   6
ENDBRANCH   4   5
ENDBRANCH   3   4
ENDBRANCH   2   3
ENDBRANCH   1   2
BRANCH   1  18
ATOM     18  C   UNL     1     -13.048  -8.640  -6.843  1.00  0.00     0.000 C 
BRANCH  18  19
ATOM     19  C   UNL     1     -14.215  -8.956  -7.801  1.00  0.00     0.000 C 
BRANCH  19  20
ATOM     20  C   UNL     1     -15.431  -8.024  -7.631  1.00  0.00     0.000 C 
BRANCH  20  21
ATOM     21  C   UNL     1     -16.673  -8.398  -8.464  1.00  0.00     0.000 C 
BRANCH  21  22
ATOM     22  C   UNL     1     -17.591  -9.479  -7.855  1.00  0.00     0.000 C 
BRANCH  22  23
ATOM     23  C   UNL     1     -17.359  -9.775  -6.356  1.00  0.00     0.000 C 
BRANCH  23  24
ATOM     24  C   UNL     1     -16.523 -11.040  -6.083  1.00  0.00    -0.000 C 
BRANCH  24  25
ATOM     25  C   UNL     1     -16.429 -12.028  -7.259  1.00  0.00    -0.000 C 
BRANCH  25  26
ATOM     26  C   UNL     1     -14.997 -12.442  -7.661  1.00  0.00    -0.000 C 
BRANCH  26  27
ATOM     27  C   UNL     1     -14.787 -12.710  -9.162  1.00  0.00    -0.000 C 
BRANCH  27  28
ATOM     28  C   UNL     1     -15.076 -11.476 -10.036  1.00  0.00    -0.000 C 
BRANCH  28  29
ATOM     29  C   UNL     1     -16.060 -11.784 -11.177  1.00  0.00    -0.000 C 
BRANCH  29  30
ATOM     30  C   UNL     1     -17.404 -11.055 -11.010  1.00  0.00    -0.000 C 
BRANCH  30  31
ATOM     31  C   UNL     1     -18.602 -11.929 -11.413  1.00  0.00    -0.003 C 
ATOM     32  C   UNL     1     -19.463 -11.290 -12.502  1.00  0.00     0.004 C 
ENDBRANCH  30  31
ENDBRANCH  29  30
ENDBRANCH  28  29
ENDBRANCH  27  28
ENDBRANCH  26  27
ENDBRANCH  25  26
ENDBRANCH  24  25
ENDBRANCH  23  24
ENDBRANCH  22  23
ENDBRANCH  21  22
ENDBRANCH  20  21
ENDBRANCH  19  20
ENDBRANCH  18  19
ENDBRANCH   1  18
TORSDOF 28
ENDMDL
MODEL 9
REMARK VINA RESULT:    -5.798      4.049      5.208
REMARK INTER + INTRA:         -17.882
REMARK INTER:                 -15.644
REMARK INTRA:                  -2.238
REMARK UNBOUND:                -2.594
REMARK SMILES CCCCCCCCCCCCCCCCCCCCCCCCCCCCCC(=O)[O-]
REMARK SMILES IDX 16 1 17 2 18 3 19 4 20 5 21 6 22 7 23 8 24 9 25 10 26 11
REMARK SMILES IDX 27 12 28 13 29 14 30 15 31 16 32 17 15 18 14 19 13 20 12 21
REMARK SMILES IDX 11 22 10 23 9 24 8 25 7 26 6 27 5 28 4 29 3 30 2 31 1 32
REMARK H PARENT
REMARK Flexibility Score: inf
ROOT
ATOM      1  C   UNL     1     -12.486 -10.012  -6.369  1.00  0.00     0.000 C 
ENDROOT
BRANCH   1   2
ATOM      2  C   UNL     1     -12.720 -10.613  -4.970  1.00  0.00     0.000 C 
BRANCH   2   3
ATOM      3  C   UNL     1     -11.707 -11.702  -4.567  1.00  0.00     0.000 C 
BRANCH   3   4
ATOM      4  C   UNL     1     -11.678 -11.952  -3.048  1.00  0.00     0.000 C 
BRANCH   4   5
ATOM      5  C   UNL     1     -10.732 -13.099  -2.658  1.00  0.00     0.000 C 
BRANCH   5   6
ATOM      6  C   UNL     1      -9.947 -12.795  -1.369  1.00  0.00     0.000 C 
BRANCH   6   7
ATOM      7  C   UNL     1     -10.536 -11.616  -0.579  1.00  0.00     0.000 C 
BRANCH   7   8
ATOM      8  C   UNL     1      -9.787 -11.359   0.740  1.00  0.00     0.000 C 
BRANCH   8   9
ATOM      9  C   UNL     1      -8.585 -10.418   0.561  1.00  0.00     0.000 C 
BRANCH   9  10
ATOM     10  C   UNL     1      -8.984  -8.934   0.627  1.00  0.00     0.000 C 
BRANCH  10  11
ATOM     11  C   UNL     1      -7.814  -8.018   1.026  1.00  0.00     0.000 C 
BRANCH  11  12
ATOM     12  C   UNL     1      -6.938  -7.579  -0.167  1.00  0.00     0.000 C 
BRANCH  12  13
ATOM     13  C   UNL     1      -5.510  -7.207   0.269  1.00  0.00     0.006 C 
BRANCH  13  14
ATOM     14  C   UNL     1      -5.142  -5.771  -0.124  1.00  0.00     0.053 C 
BRANCH  14  15
ATOM     15  C   UNL     1      -6.100  -5.213  -1.133  1.00  0.00     0.041 C 
ATOM     16  O   UNL     1      -5.838  -5.278  -2.363  1.00  0.00    -0.550 OA
ATOM     17  O   UNL     1      -7.270  -4.595  -0.710  1.00  0.00    -0.550 OA
ENDBRANCH  14  15
ENDBRANCH  13  14
ENDBRANCH  12  13
ENDBRANCH  11  12
ENDBRANCH  10  11
ENDBRANCH   9  10
ENDBRANCH   8   9
ENDBRANCH   7   8
ENDBRANCH   6   7
ENDBRANCH   5   6
ENDBRANCH   4   5
ENDBRANCH   3   4
ENDBRANCH   2   3
ENDBRANCH   1   2
BRANCH   1  18
ATOM     18  C   UNL     1     -13.748 -10.048  -7.249  1.00  0.00     0.000 C 
BRANCH  18  19
ATOM     19  C   UNL     1     -14.266 -11.483  -7.484  1.00  0.00     0.000 C 
BRANCH  19  20
ATOM     20  C   UNL     1     -15.675 -11.737  -6.915  1.00  0.00     0.000 C 
BRANCH  20  21
ATOM     21  C   UNL     1     -16.307 -10.551  -6.159  1.00  0.00     0.000 C 
BRANCH  21  22
ATOM     22  C   UNL     1     -17.342  -9.724  -6.952  1.00  0.00     0.000 C 
BRANCH  22  23
ATOM     23  C   UNL     1     -16.940  -8.258  -7.234  1.00  0.00     0.000 C 
BRANCH  23  24
ATOM     24  C   UNL     1     -16.402  -8.013  -8.657  1.00  0.00    -0.000 C 
BRANCH  24  25
ATOM     25  C   UNL     1     -17.060  -8.860  -9.761  1.00  0.00    -0.000 C 
BRANCH  25  26
ATOM     26  C   UNL     1     -16.234 -10.071 -10.245  1.00  0.00    -0.000 C 
BRANCH  26  27
ATOM     27  C   UNL     1     -16.973 -11.422 -10.224  1.00  0.00    -0.000 C 
BRANCH  27  28
ATOM     28  C   UNL     1     -17.447 -11.865 -11.619  1.00  0.00    -0.000 C 
BRANCH  28  29
ATOM     29  C   UNL     1     -18.980 -11.928 -11.724  1.00  0.00    -0.000 C 
BRANCH  29  30
ATOM     30  C   UNL     1     -19.639 -10.546 -11.576  1.00  0.00    -0.000 C 
BRANCH  30  31
ATOM     31  C   UNL     1     -20.688 -10.275 -12.665  1.00  0.00    -0.003 C 
ATOM     32  C   UNL     1     -20.875 -11.458 -13.616  1.00  0.00     0.004 C 
ENDBRANCH  30  31
ENDBRANCH  29  30
ENDBRANCH  28  29
ENDBRANCH  27  28
ENDBRANCH  26  27
ENDBRANCH  25  26
ENDBRANCH  24  25
ENDBRANCH  23  24
ENDBRANCH  22  23
ENDBRANCH  21  22
ENDBRANCH  20  21
ENDBRANCH  19  20
ENDBRANCH  18  19
ENDBRANCH   1  18
TORSDOF 28
ENDMDL
