MODEL 1
REMARK VINA RESULT:    -4.896      0.000      0.000
REMARK INTER + INTRA:         -14.454
REMARK INTER:                 -11.194
REMARK INTRA:                  -3.260
REMARK UNBOUND:                -3.260
REMARK SMILES CCCCCCCCCCCCCCCCCCCCCCCC(=O)[O-]
REMARK SMILES IDX 13 1 14 2 15 3 16 4 17 5 18 6 19 7 20 8 21 9 22 10 23 11
REMARK SMILES IDX 24 12 25 13 26 14 12 15 11 16 10 17 9 18 8 19 7 20 6 21 5 22
REMARK SMILES IDX 4 23 3 24 2 25 1 26
REMARK H PARENT
REMARK Flexibility Score: inf
ROOT
ATOM      1  C   UNL     1      32.466  55.905  32.216  1.00  0.00     0.000 C 
ENDROOT
BRANCH   1   2
ATOM      2  C   UNL     1      33.086  56.202  33.593  1.00  0.00     0.000 C 
BRANCH   2   3
ATOM      3  C   UNL     1      34.019  57.423  33.573  1.00  0.00     0.000 C 
BRANCH   3   4
ATOM      4  C   UNL     1      35.257  57.201  32.684  1.00  0.00     0.000 C 
BRANCH   4   5
ATOM      5  C   UNL     1      35.241  58.074  31.419  1.00  0.00     0.000 C 
BRANCH   5   6
ATOM      6  C   UNL     1      35.235  57.239  30.126  1.00  0.00     0.000 C 
BRANCH   6   7
ATOM      7  C   UNL     1      36.100  57.861  29.018  1.00  0.00     0.000 C 
BRANCH   7   8
ATOM      8  C   UNL     1      35.508  57.656  27.613  1.00  0.00     0.000 C 
BRANCH   8   9
ATOM      9  C   UNL     1      34.824  56.280  27.464  1.00  0.00     0.000 C 
BRANCH   9  10
ATOM     10  C   UNL     1      33.387  56.364  26.914  1.00  0.00     0.006 C 
BRANCH  10  11
ATOM     11  C   UNL     1      32.891  55.065  26.259  1.00  0.00     0.053 C 
BRANCH  11  12
ATOM     12  C   UNL     1      31.476  54.743  26.633  1.00  0.00     0.041 C 
ATOM     13  O   UNL     1      30.947  53.665  26.253  1.00  0.00    -0.550 OA
ATOM     14  O   UNL     1      30.725  55.653  27.369  1.00  0.00    -0.550 OA
ENDBRANCH  11  12
ENDBRANCH  10  11
ENDBRANCH   9  10
ENDBRANCH   8   9
ENDBRANCH   7   8
ENDBRANCH   6   7
ENDBRANCH   5   6
ENDBRANCH   4   5
ENDBRANCH   3   4
ENDBRANCH   2   3
ENDBRANCH   1   2
BRANCH   1  15
ATOM     15  C   UNL     1      32.977  54.580  31.621  1.00  0.00     0.000 C 
BRANCH  15  16
ATOM     16  C   UNL     1      32.842  54.497  30.089  1.00  0.00     0.000 C 
BRANCH  16  17
ATOM     17  C   UNL     1      33.374  53.168  29.524  1.00  0.00     0.000 C 
BRANCH  17  18
ATOM     18  C   UNL     1      32.257  52.119  29.328  1.00  0.00    -0.000 C 
BRANCH  18  19
ATOM     19  C   UNL     1      32.387  50.891  30.249  1.00  0.00    -0.000 C 
BRANCH  19  20
ATOM     20  C   UNL     1      31.094  50.487  30.980  1.00  0.00    -0.000 C 
BRANCH  20  21
ATOM     21  C   UNL     1      30.488  51.578  31.887  1.00  0.00    -0.000 C 
BRANCH  21  22
ATOM     22  C   UNL     1      31.278  51.871  33.178  1.00  0.00    -0.000 C 
BRANCH  22  23
ATOM     23  C   UNL     1      32.455  50.917  33.449  1.00  0.00    -0.000 C 
BRANCH  23  24
ATOM     24  C   UNL     1      33.715  51.651  33.937  1.00  0.00    -0.000 C 
BRANCH  24  25
ATOM     25  C   UNL     1      34.830  51.676  32.880  1.00  0.00    -0.003 C 
ATOM     26  C   UNL     1      36.228  51.711  33.499  1.00  0.00     0.004 C 
ENDBRANCH  24  25
ENDBRANCH  23  24
ENDBRANCH  22  23
ENDBRANCH  21  22
ENDBRANCH  20  21
ENDBRANCH  19  20
ENDBRANCH  18  19
ENDBRANCH  17  18
ENDBRANCH  16  17
ENDBRANCH  15  16
ENDBRANCH   1  15
TORSDOF 22
ENDMDL
MODEL 2
REMARK VINA RESULT:    -4.885      2.710      7.005
REMARK INTER + INTRA:         -14.427
REMARK INTER:                 -11.414
REMARK INTRA:                  -3.013
REMARK UNBOUND:                -3.260
REMARK SMILES CCCCCCCCCCCCCCCCCCCCCCCC(=O)[O-]
REMARK SMILES IDX 13 1 14 2 15 3 16 4 17 5 18 6 19 7 20 8 21 9 22 10 23 11
REMARK SMILES IDX 24 12 25 13 26 14 12 15 11 16 10 17 9 18 8 19 7 20 6 21 5 22
REMARK SMILES IDX 4 23 3 24 2 25 1 26
REMARK H PARENT
REMARK Flexibility Score: inf
ROOT
ATOM      1  C   UNL     1      32.410  54.635  28.473  1.00  0.00     0.000 C 
ENDROOT
BRANCH   1   2
ATOM      2  C   UNL     1      32.630  53.155  28.113  1.00  0.00     0.000 C 
BRANCH   2   3
ATOM      3  C   UNL     1      32.714  52.249  29.352  1.00  0.00     0.000 C 
BRANCH   3   4
ATOM      4  C   UNL     1      32.789  53.053  30.663  1.00  0.00     0.000 C 
BRANCH   4   5
ATOM      5  C   UNL     1      33.546  52.305  31.772  1.00  0.00     0.000 C 
BRANCH   5   6
ATOM      6  C   UNL     1      32.683  52.081  33.027  1.00  0.00     0.000 C 
BRANCH   6   7
ATOM      7  C   UNL     1      31.206  52.441  32.798  1.00  0.00     0.000 C 
BRANCH   7   8
ATOM      8  C   UNL     1      30.280  51.213  32.841  1.00  0.00     0.000 C 
BRANCH   8   9
ATOM      9  C   UNL     1      30.038  50.616  31.438  1.00  0.00     0.000 C 
BRANCH   9  10
ATOM     10  C   UNL     1      30.570  49.178  31.282  1.00  0.00     0.006 C 
BRANCH  10  11
ATOM     11  C   UNL     1      31.856  49.073  30.448  1.00  0.00     0.053 C 
BRANCH  11  12
ATOM     12  C   UNL     1      32.514  47.733  30.581  1.00  0.00     0.041 C 
ATOM     13  O   UNL     1      33.205  47.463  31.598  1.00  0.00    -0.550 OA
ATOM     14  O   UNL     1      32.397  46.795  29.561  1.00  0.00    -0.550 OA
ENDBRANCH  11  12
ENDBRANCH  10  11
ENDBRANCH   9  10
ENDBRANCH   8   9
ENDBRANCH   7   8
ENDBRANCH   6   7
ENDBRANCH   5   6
ENDBRANCH   4   5
ENDBRANCH   3   4
ENDBRANCH   2   3
ENDBRANCH   1   2
BRANCH   1  15
ATOM     15  C   UNL     1      31.489  55.348  27.466  1.00  0.00     0.000 C 
BRANCH  15  16
ATOM     16  C   UNL     1      32.239  56.273  26.489  1.00  0.00     0.000 C 
BRANCH  16  17
ATOM     17  C   UNL     1      33.734  55.923  26.381  1.00  0.00     0.000 C 
BRANCH  17  18
ATOM     18  C   UNL     1      34.646  57.151  26.590  1.00  0.00    -0.000 C 
BRANCH  18  19
ATOM     19  C   UNL     1      35.796  56.911  27.587  1.00  0.00    -0.000 C 
BRANCH  19  20
ATOM     20  C   UNL     1      36.129  58.109  28.495  1.00  0.00    -0.000 C 
BRANCH  20  21
ATOM     21  C   UNL     1      35.696  57.952  29.968  1.00  0.00    -0.000 C 
BRANCH  21  22
ATOM     22  C   UNL     1      34.741  56.776  30.250  1.00  0.00    -0.000 C 
BRANCH  22  23
ATOM     23  C   UNL     1      34.509  56.473  31.741  1.00  0.00    -0.000 C 
BRANCH  23  24
ATOM     24  C   UNL     1      33.182  57.048  32.265  1.00  0.00    -0.000 C 
BRANCH  24  25
ATOM     25  C   UNL     1      32.257  55.965  32.840  1.00  0.00    -0.003 C 
ATOM     26  C   UNL     1      32.592  55.612  34.290  1.00  0.00     0.004 C 
ENDBRANCH  24  25
ENDBRANCH  23  24
ENDBRANCH  22  23
ENDBRANCH  21  22
ENDBRANCH  20  21
ENDBRANCH  19  20
ENDBRANCH  18  19
ENDBRANCH  17  18
ENDBRANCH  16  17
ENDBRANCH  15  16
ENDBRANCH   1  15
TORSDOF 22
ENDMDL
MODEL 3
REMARK VINA RESULT:    -4.861      2.118      5.358
REMARK INTER + INTRA:         -14.372
REMARK INTER:                 -10.782
REMARK INTRA:                  -3.590
REMARK UNBOUND:                -3.260
REMARK SMILES CCCCCCCCCCCCCCCCCCCCCCCC(=O)[O-]
REMARK SMILES IDX 13 1 14 2 15 3 16 4 17 5 18 6 19 7 20 8 21 9 22 10 23 11
REMARK SMILES IDX 24 12 25 13 26 14 12 15 11 16 10 17 9 18 8 19 7 20 6 21 5 22
REMARK SMILES IDX 4 23 3 24 2 25 1 26
REMARK H PARENT
REMARK Flexibility Score: inf
ROOT
ATOM      1  C   UNL     1      34.926  56.386  28.245  1.00  0.00     0.000 C 
ENDROOT
BRANCH   1   2
ATOM      2  C   UNL     1      34.783  56.949  26.820  1.00  0.00     0.000 C 
BRANCH   2   3
ATOM      3  C   UNL     1      33.468  56.530  26.144  1.00  0.00     0.000 C 
BRANCH   3   4
ATOM      4  C   UNL     1      32.392  56.110  27.164  1.00  0.00     0.000 C 
BRANCH   4   5
ATOM      5  C   UNL     1      31.538  54.932  26.671  1.00  0.00     0.000 C 
BRANCH   5   6
ATOM      6  C   UNL     1      32.301  53.595  26.707  1.00  0.00     0.000 C 
BRANCH   6   7
ATOM      7  C   UNL     1      33.048  53.379  28.033  1.00  0.00     0.000 C 
BRANCH   7   8
ATOM      8  C   UNL     1      32.320  52.404  28.975  1.00  0.00     0.000 C 
BRANCH   8   9
ATOM      9  C   UNL     1      33.158  52.071  30.229  1.00  0.00     0.000 C 
BRANCH   9  10
ATOM     10  C   UNL     1      32.501  51.020  31.145  1.00  0.00     0.006 C 
BRANCH  10  11
ATOM     11  C   UNL     1      31.018  51.291  31.443  1.00  0.00     0.053 C 
BRANCH  11  12
ATOM     12  C   UNL     1      30.133  50.165  31.000  1.00  0.00     0.041 C 
ATOM     13  O   UNL     1      29.458  50.266  29.942  1.00  0.00    -0.550 OA
ATOM     14  O   UNL     1      30.022  49.018  31.778  1.00  0.00    -0.550 OA
ENDBRANCH  11  12
ENDBRANCH  10  11
ENDBRANCH   9  10
ENDBRANCH   8   9
ENDBRANCH   7   8
ENDBRANCH   6   7
ENDBRANCH   5   6
ENDBRANCH   4   5
ENDBRANCH   3   4
ENDBRANCH   2   3
ENDBRANCH   1   2
BRANCH   1  15
ATOM     15  C   UNL     1      35.273  57.480  29.271  1.00  0.00     0.000 C 
BRANCH  15  16
ATOM     16  C   UNL     1      34.780  57.169  30.698  1.00  0.00     0.000 C 
BRANCH  16  17
ATOM     17  C   UNL     1      34.140  55.773  30.805  1.00  0.00     0.000 C 
BRANCH  17  18
ATOM     18  C   UNL     1      32.628  55.837  31.111  1.00  0.00    -0.000 C 
BRANCH  18  19
ATOM     19  C   UNL     1      32.270  56.764  32.289  1.00  0.00    -0.000 C 
BRANCH  19  20
ATOM     20  C   UNL     1      32.660  56.228  33.678  1.00  0.00    -0.000 C 
BRANCH  20  21
ATOM     21  C   UNL     1      31.841  55.015  34.166  1.00  0.00    -0.000 C 
BRANCH  21  22
ATOM     22  C   UNL     1      32.451  53.637  33.840  1.00  0.00    -0.000 C 
BRANCH  22  23
ATOM     23  C   UNL     1      33.612  53.210  34.756  1.00  0.00    -0.000 C 
BRANCH  23  24
ATOM     24  C   UNL     1      34.407  52.020  34.191  1.00  0.00    -0.000 C 
BRANCH  24  25
ATOM     25  C   UNL     1      35.472  52.454  33.173  1.00  0.00    -0.003 C 
ATOM     26  C   UNL     1      36.142  53.777  33.549  1.00  0.00     0.004 C 
ENDBRANCH  24  25
ENDBRANCH  23  24
ENDBRANCH  22  23
ENDBRANCH  21  22
ENDBRANCH  20  21
ENDBRANCH  19  20
ENDBRANCH  18  19
ENDBRANCH  17  18
ENDBRANCH  16  17
ENDBRANCH  15  16
ENDBRANCH   1  15
TORSDOF 22
ENDMDL
MODEL 4
REMARK VINA RESULT:    -4.794      2.188      6.101
REMARK INTER + INTRA:         -14.220
REMARK INTER:                 -11.018
REMARK INTRA:                  -3.202
REMARK UNBOUND:                -3.260
REMARK SMILES CCCCCCCCCCCCCCCCCCCCCCCC(=O)[O-]
REMARK SMILES IDX 13 1 14 2 15 3 16 4 17 5 18 6 19 7 20 8 21 9 22 10 23 11
REMARK SMILES IDX 24 12 25 13 26 14 12 15 11 16 10 17 9 18 8 19 7 20 6 21 5 22
REMARK SMILES IDX 4 23 3 24 2 25 1 26
REMARK H PARENT
REMARK Flexibility Score: inf
ROOT
ATOM      1  C   UNL     1      33.438  56.980  32.995  1.00  0.00     0.000 C 
ENDROOT
BRANCH   1   2
ATOM      2  C   UNL     1      33.741  56.248  34.314  1.00  0.00     0.000 C 
BRANCH   2   3
ATOM      3  C   UNL     1      35.246  56.030  34.539  1.00  0.00     0.000 C 
BRANCH   3   4
ATOM      4  C   UNL     1      35.945  55.437  33.302  1.00  0.00     0.000 C 
BRANCH   4   5
ATOM      5  C   UNL     1      37.003  54.384  33.669  1.00  0.00     0.000 C 
BRANCH   5   6
ATOM      6  C   UNL     1      36.378  53.037  34.075  1.00  0.00     0.000 C 
BRANCH   6   7
ATOM      7  C   UNL     1      35.397  52.500  33.019  1.00  0.00     0.000 C 
BRANCH   7   8
ATOM      8  C   UNL     1      34.197  51.765  33.641  1.00  0.00     0.000 C 
BRANCH   8   9
ATOM      9  C   UNL     1      33.488  50.844  32.624  1.00  0.00     0.000 C 
BRANCH   9  10
ATOM     10  C   UNL     1      31.965  50.752  32.837  1.00  0.00     0.006 C 
BRANCH  10  11
ATOM     11  C   UNL     1      31.136  51.195  31.621  1.00  0.00     0.053 C 
BRANCH  11  12
ATOM     12  C   UNL     1      29.662  51.042  31.850  1.00  0.00     0.041 C 
ATOM     13  O   UNL     1      29.161  51.325  32.970  1.00  0.00    -0.550 OA
ATOM     14  O   UNL     1      28.847  50.547  30.838  1.00  0.00    -0.550 OA
ENDBRANCH  11  12
ENDBRANCH  10  11
ENDBRANCH   9  10
ENDBRANCH   8   9
ENDBRANCH   7   8
ENDBRANCH   6   7
ENDBRANCH   5   6
ENDBRANCH   4   5
ENDBRANCH   3   4
ENDBRANCH   2   3
ENDBRANCH   1   2
BRANCH   1  15
ATOM     15  C   UNL     1      32.359  56.261  32.164  1.00  0.00     0.000 C 
BRANCH  15  16
ATOM     16  C   UNL     1      32.486  54.725  32.183  1.00  0.00     0.000 C 
BRANCH  16  17
ATOM     17  C   UNL     1      33.075  54.170  30.874  1.00  0.00     0.000 C 
BRANCH  17  18
ATOM     18  C   UNL     1      33.011  55.190  29.716  1.00  0.00    -0.000 C 
BRANCH  18  19
ATOM     19  C   UNL     1      32.635  54.568  28.357  1.00  0.00    -0.000 C 
BRANCH  19  20
ATOM     20  C   UNL     1      31.643  55.393  27.518  1.00  0.00    -0.000 C 
BRANCH  20  21
ATOM     21  C   UNL     1      32.287  56.309  26.458  1.00  0.00    -0.000 C 
BRANCH  21  22
ATOM     22  C   UNL     1      33.810  56.142  26.283  1.00  0.00    -0.000 C 
BRANCH  22  23
ATOM     23  C   UNL     1      34.659  57.284  26.868  1.00  0.00    -0.000 C 
BRANCH  23  24
ATOM     24  C   UNL     1      35.867  56.774  27.672  1.00  0.00    -0.000 C 
BRANCH  24  25
ATOM     25  C   UNL     1      36.372  57.805  28.694  1.00  0.00    -0.003 C 
ATOM     26  C   UNL     1      35.534  57.825  29.974  1.00  0.00     0.004 C 
ENDBRANCH  24  25
ENDBRANCH  23  24
ENDBRANCH  22  23
ENDBRANCH  21  22
ENDBRANCH  20  21
ENDBRANCH  19  20
ENDBRANCH  18  19
ENDBRANCH  17  18
ENDBRANCH  16  17
ENDBRANCH  15  16
ENDBRANCH   1  15
TORSDOF 22
ENDMDL
MODEL 5
REMARK VINA RESULT:    -4.793      2.577      7.300
REMARK INTER + INTRA:         -14.218
REMARK INTER:                 -10.772
REMARK INTRA:                  -3.445
REMARK UNBOUND:                -3.260
REMARK SMILES CCCCCCCCCCCCCCCCCCCCCCCC(=O)[O-]
REMARK SMILES IDX 13 1 14 2 15 3 16 4 17 5 18 6 19 7 20 8 21 9 22 10 23 11
REMARK SMILES IDX 24 12 25 13 26 14 12 15 11 16 10 17 9 18 8 19 7 20 6 21 5 22
REMARK SMILES IDX 4 23 3 24 2 25 1 26
REMARK H PARENT
REMARK Flexibility Score: inf
ROOT
ATOM      1  C   UNL     1      33.393  54.103  29.468  1.00  0.00     0.000 C 
ENDROOT
BRANCH   1   2
ATOM      2  C   UNL     1      32.893  52.718  29.915  1.00  0.00     0.000 C 
BRANCH   2   3
ATOM      3  C   UNL     1      32.077  52.001  28.828  1.00  0.00     0.000 C 
BRANCH   3   4
ATOM      4  C   UNL     1      31.839  50.515  29.156  1.00  0.00     0.000 C 
BRANCH   4   5
ATOM      5  C   UNL     1      31.831  50.238  30.668  1.00  0.00     0.000 C 
BRANCH   5   6
ATOM      6  C   UNL     1      30.409  50.238  31.259  1.00  0.00     0.000 C 
BRANCH   6   7
ATOM      7  C   UNL     1      30.150  51.447  32.172  1.00  0.00     0.000 C 
BRANCH   7   8
ATOM      8  C   UNL     1      31.134  51.525  33.352  1.00  0.00     0.000 C 
BRANCH   8   9
ATOM      9  C   UNL     1      31.879  52.876  33.401  1.00  0.00     0.000 C 
BRANCH   9  10
ATOM     10  C   UNL     1      33.277  52.784  34.043  1.00  0.00     0.006 C 
BRANCH  10  11
ATOM     11  C   UNL     1      34.400  53.387  33.185  1.00  0.00     0.053 C 
BRANCH  11  12
ATOM     12  C   UNL     1      35.553  52.444  33.012  1.00  0.00     0.041 C 
ATOM     13  O   UNL     1      36.634  52.643  33.627  1.00  0.00    -0.550 OA
ATOM     14  O   UNL     1      35.448  51.367  32.140  1.00  0.00    -0.550 OA
ENDBRANCH  11  12
ENDBRANCH  10  11
ENDBRANCH   9  10
ENDBRANCH   8   9
ENDBRANCH   7   8
ENDBRANCH   6   7
ENDBRANCH   5   6
ENDBRANCH   4   5
ENDBRANCH   3   4
ENDBRANCH   2   3
ENDBRANCH   1   2
BRANCH   1  15
ATOM     15  C   UNL     1      33.047  54.400  27.997  1.00  0.00     0.000 C 
BRANCH  15  16
ATOM     16  C   UNL     1      32.033  55.546  27.819  1.00  0.00     0.000 C 
BRANCH  16  17
ATOM     17  C   UNL     1      32.269  56.341  26.522  1.00  0.00     0.000 C 
BRANCH  17  18
ATOM     18  C   UNL     1      33.688  56.132  25.950  1.00  0.00    -0.000 C 
BRANCH  18  19
ATOM     19  C   UNL     1      34.689  57.234  26.347  1.00  0.00    -0.000 C 
BRANCH  19  20
ATOM     20  C   UNL     1      35.990  56.726  26.994  1.00  0.00    -0.000 C 
BRANCH  20  21
ATOM     21  C   UNL     1      36.282  57.283  28.403  1.00  0.00    -0.000 C 
BRANCH  21  22
ATOM     22  C   UNL     1      35.042  57.492  29.295  1.00  0.00    -0.000 C 
BRANCH  22  23
ATOM     23  C   UNL     1      35.348  57.760  30.779  1.00  0.00    -0.000 C 
BRANCH  23  24
ATOM     24  C   UNL     1      34.738  56.702  31.713  1.00  0.00    -0.000 C 
BRANCH  24  25
ATOM     25  C   UNL     1      33.592  57.263  32.569  1.00  0.00    -0.003 C 
ATOM     26  C   UNL     1      32.306  56.445  32.442  1.00  0.00     0.004 C 
ENDBRANCH  24  25
ENDBRANCH  23  24
ENDBRANCH  22  23
ENDBRANCH  21  22
ENDBRANCH  20  21
ENDBRANCH  19  20
ENDBRANCH  18  19
ENDBRANCH  17  18
ENDBRANCH  16  17
ENDBRANCH  15  16
ENDBRANCH   1  15
TORSDOF 22
ENDMDL
MODEL 6
REMARK VINA RESULT:    -4.760      2.768      6.797
REMARK INTER + INTRA:         -14.142
REMARK INTER:                 -10.856
REMARK INTRA:                  -3.286
REMARK UNBOUND:                -3.260
REMARK SMILES CCCCCCCCCCCCCCCCCCCCCCCC(=O)[O-]
REMARK SMILES IDX 13 1 14 2 15 3 16 4 17 5 18 6 19 7 20 8 21 9 22 10 23 11
REMARK SMILES IDX 24 12 25 13 26 14 12 15 11 16 10 17 9 18 8 19 7 20 6 21 5 22
REMARK SMILES IDX 4 23 3 24 2 25 1 26
REMARK H PARENT
REMARK Flexibility Score: inf
ROOT
ATOM      1  C   UNL     1      32.064  56.227  26.614  1.00  0.00     0.000 C 
ENDROOT
BRANCH   1   2
ATOM      2  C   UNL     1      31.768  55.125  27.646  1.00  0.00     0.000 C 
BRANCH   2   3
ATOM      3  C   UNL     1      32.630  53.869  27.439  1.00  0.00     0.000 C 
BRANCH   3   4
ATOM      4  C   UNL     1      33.406  53.474  28.708  1.00  0.00     0.000 C 
BRANCH   4   5
ATOM      5  C   UNL     1      32.503  52.850  29.783  1.00  0.00     0.000 C 
BRANCH   5   6
ATOM      6  C   UNL     1      32.462  51.313  29.698  1.00  0.00     0.000 C 
BRANCH   6   7
ATOM      7  C   UNL     1      31.210  50.719  30.363  1.00  0.00     0.000 C 
BRANCH   7   8
ATOM      8  C   UNL     1      30.774  51.498  31.617  1.00  0.00     0.000 C 
BRANCH   8   9
ATOM      9  C   UNL     1      31.499  51.008  32.888  1.00  0.00     0.000 C 
BRANCH   9  10
ATOM     10  C   UNL     1      31.932  49.531  32.818  1.00  0.00     0.006 C 
BRANCH  10  11
ATOM     11  C   UNL     1      33.446  49.330  32.640  1.00  0.00     0.053 C 
BRANCH  11  12
ATOM     12  C   UNL     1      33.770  48.061  31.911  1.00  0.00     0.041 C 
ATOM     13  O   UNL     1      34.718  47.329  32.300  1.00  0.00    -0.550 OA
ATOM     14  O   UNL     1      33.051  47.707  30.774  1.00  0.00    -0.550 OA
ENDBRANCH  11  12
ENDBRANCH  10  11
ENDBRANCH   9  10
ENDBRANCH   8   9
ENDBRANCH   7   8
ENDBRANCH   6   7
ENDBRANCH   5   6
ENDBRANCH   4   5
ENDBRANCH   3   4
ENDBRANCH   2   3
ENDBRANCH   1   2
BRANCH   1  15
ATOM     15  C   UNL     1      33.396  55.993  25.877  1.00  0.00     0.000 C 
BRANCH  15  16
ATOM     16  C   UNL     1      34.501  56.993  26.264  1.00  0.00     0.000 C 
BRANCH  16  17
ATOM     17  C   UNL     1      35.234  56.588  27.555  1.00  0.00     0.000 C 
BRANCH  17  18
ATOM     18  C   UNL     1      35.604  57.804  28.433  1.00  0.00    -0.000 C 
BRANCH  18  19
ATOM     19  C   UNL     1      35.646  57.494  29.941  1.00  0.00    -0.000 C 
BRANCH  19  20
ATOM     20  C   UNL     1      34.442  56.696  30.473  1.00  0.00    -0.000 C 
BRANCH  20  21
ATOM     21  C   UNL     1      34.010  57.045  31.912  1.00  0.00    -0.000 C 
BRANCH  21  22
ATOM     22  C   UNL     1      32.568  56.643  32.281  1.00  0.00    -0.000 C 
BRANCH  22  23
ATOM     23  C   UNL     1      32.340  55.130  32.450  1.00  0.00    -0.000 C 
BRANCH  23  24
ATOM     24  C   UNL     1      32.415  54.678  33.918  1.00  0.00    -0.000 C 
BRANCH  24  25
ATOM     25  C   UNL     1      33.631  53.781  34.196  1.00  0.00    -0.003 C 
ATOM     26  C   UNL     1      34.392  53.409  32.922  1.00  0.00     0.004 C 
ENDBRANCH  24  25
ENDBRANCH  23  24
ENDBRANCH  22  23
ENDBRANCH  21  22
ENDBRANCH  20  21
ENDBRANCH  19  20
ENDBRANCH  18  19
ENDBRANCH  17  18
ENDBRANCH  16  17
ENDBRANCH  15  16
ENDBRANCH   1  15
TORSDOF 22
ENDMDL
MODEL 7
REMARK VINA RESULT:    -4.742      1.720      5.969
REMARK INTER + INTRA:         -14.101
REMARK INTER:                 -10.290
REMARK INTRA:                  -3.812
REMARK UNBOUND:                -3.260
REMARK SMILES CCCCCCCCCCCCCCCCCCCCCCCC(=O)[O-]
REMARK SMILES IDX 13 1 14 2 15 3 16 4 17 5 18 6 19 7 20 8 21 9 22 10 23 11
REMARK SMILES IDX 24 12 25 13 26 14 12 15 11 16 10 17 9 18 8 19 7 20 6 21 5 22
REMARK SMILES IDX 4 23 3 24 2 25 1 26
REMARK H PARENT
REMARK Flexibility Score: inf
ROOT
ATOM      1  C   UNL     1      33.565  55.161  27.299  1.00  0.00     0.000 C 
ENDROOT
BRANCH   1   2
ATOM      2  C   UNL     1      32.329  55.234  28.212  1.00  0.00     0.000 C 
BRANCH   2   3
ATOM      3  C   UNL     1      32.691  55.190  29.706  1.00  0.00     0.000 C 
BRANCH   3   4
ATOM      4  C   UNL     1      33.365  53.865  30.107  1.00  0.00     0.000 C 
BRANCH   4   5
ATOM      5  C   UNL     1      33.546  53.731  31.628  1.00  0.00     0.000 C 
BRANCH   5   6
ATOM      6  C   UNL     1      32.525  54.569  32.419  1.00  0.00     0.000 C 
BRANCH   6   7
ATOM      7  C   UNL     1      31.627  53.708  33.321  1.00  0.00     0.000 C 
BRANCH   7   8
ATOM      8  C   UNL     1      32.061  52.232  33.358  1.00  0.00     0.000 C 
BRANCH   8   9
ATOM      9  C   UNL     1      30.888  51.273  33.059  1.00  0.00     0.000 C 
BRANCH   9  10
ATOM     10  C   UNL     1      30.610  51.092  31.554  1.00  0.00     0.006 C 
BRANCH  10  11
ATOM     11  C   UNL     1      31.810  50.558  30.756  1.00  0.00     0.053 C 
BRANCH  11  12
ATOM     12  C   UNL     1      31.522  50.467  29.288  1.00  0.00     0.041 C 
ATOM     13  O   UNL     1      31.329  49.346  28.747  1.00  0.00    -0.550 OA
ATOM     14  O   UNL     1      31.508  51.617  28.508  1.00  0.00    -0.550 OA
ENDBRANCH  11  12
ENDBRANCH  10  11
ENDBRANCH   9  10
ENDBRANCH   8   9
ENDBRANCH   7   8
ENDBRANCH   6   7
ENDBRANCH   5   6
ENDBRANCH   4   5
ENDBRANCH   3   4
ENDBRANCH   2   3
ENDBRANCH   1   2
BRANCH   1  15
ATOM     15  C   UNL     1      33.693  56.398  26.392  1.00  0.00     0.000 C 
BRANCH  15  16
ATOM     16  C   UNL     1      34.834  57.349  26.800  1.00  0.00     0.000 C 
BRANCH  16  17
ATOM     17  C   UNL     1      36.069  56.593  27.322  1.00  0.00     0.000 C 
BRANCH  17  18
ATOM     18  C   UNL     1      36.725  57.293  28.532  1.00  0.00    -0.000 C 
BRANCH  18  19
ATOM     19  C   UNL     1      35.715  57.926  29.508  1.00  0.00    -0.000 C 
BRANCH  19  20
ATOM     20  C   UNL     1      35.474  57.127  30.801  1.00  0.00    -0.000 C 
BRANCH  20  21
ATOM     21  C   UNL     1      34.416  57.725  31.752  1.00  0.00    -0.000 C 
BRANCH  21  22
ATOM     22  C   UNL     1      34.664  57.471  33.252  1.00  0.00    -0.000 C 
BRANCH  22  23
ATOM     23  C   UNL     1      35.563  56.261  33.565  1.00  0.00    -0.000 C 
BRANCH  23  24
ATOM     24  C   UNL     1      35.183  55.564  34.882  1.00  0.00    -0.000 C 
BRANCH  24  25
ATOM     25  C   UNL     1      35.470  54.055  34.853  1.00  0.00    -0.003 C 
ATOM     26  C   UNL     1      36.452  53.663  33.747  1.00  0.00     0.004 C 
ENDBRANCH  24  25
ENDBRANCH  23  24
ENDBRANCH  22  23
ENDBRANCH  21  22
ENDBRANCH  20  21
ENDBRANCH  19  20
ENDBRANCH  18  19
ENDBRANCH  17  18
ENDBRANCH  16  17
ENDBRANCH  15  16
ENDBRANCH   1  15
TORSDOF 22
ENDMDL
MODEL 8
REMARK VINA RESULT:    -4.741      2.296      6.095
REMARK INTER + INTRA:         -14.099
REMARK INTER:                 -10.474
REMARK INTRA:                  -3.625
REMARK UNBOUND:                -3.260
REMARK SMILES CCCCCCCCCCCCCCCCCCCCCCCC(=O)[O-]
REMARK SMILES IDX 13 1 14 2 15 3 16 4 17 5 18 6 19 7 20 8 21 9 22 10 23 11
REMARK SMILES IDX 24 12 25 13 26 14 12 15 11 16 10 17 9 18 8 19 7 20 6 21 5 22
REMARK SMILES IDX 4 23 3 24 2 25 1 26
REMARK H PARENT
REMARK Flexibility Score: inf
ROOT
ATOM      1  C   UNL     1      32.335  56.359  26.433  1.00  0.00     0.000 C 
ENDROOT
BRANCH   1   2
ATOM      2  C   UNL     1      31.948  55.456  27.617  1.00  0.00     0.000 C 
BRANCH   2   3
ATOM      3  C   UNL     1      32.383  53.995  27.417  1.00  0.00     0.000 C 
BRANCH   3   4
ATOM      4  C   UNL     1      33.359  53.518  28.509  1.00  0.00     0.000 C 
BRANCH   4   5
ATOM      5  C   UNL     1      32.688  52.595  29.538  1.00  0.00     0.000 C 
BRANCH   5   6
ATOM      6  C   UNL     1      32.998  53.005  30.989  1.00  0.00     0.000 C 
BRANCH   6   7
ATOM      7  C   UNL     1      34.203  52.248  31.571  1.00  0.00     0.000 C 
BRANCH   7   8
ATOM      8  C   UNL     1      33.825  51.358  32.768  1.00  0.00     0.000 C 
BRANCH   8   9
ATOM      9  C   UNL     1      32.323  51.452  33.113  1.00  0.00     0.000 C 
BRANCH   9  10
ATOM     10  C   UNL     1      31.559  50.130  32.900  1.00  0.00     0.006 C 
BRANCH  10  11
ATOM     11  C   UNL     1      30.636  50.132  31.671  1.00  0.00     0.053 C 
BRANCH  11  12
ATOM     12  C   UNL     1      29.323  50.801  31.946  1.00  0.00     0.041 C 
ATOM     13  O   UNL     1      28.319  50.550  31.229  1.00  0.00    -0.550 OA
ATOM     14  O   UNL     1      29.219  51.736  32.970  1.00  0.00    -0.550 OA
ENDBRANCH  11  12
ENDBRANCH  10  11
ENDBRANCH   9  10
ENDBRANCH   8   9
ENDBRANCH   7   8
ENDBRANCH   6   7
ENDBRANCH   5   6
ENDBRANCH   4   5
ENDBRANCH   3   4
ENDBRANCH   2   3
ENDBRANCH   1   2
BRANCH   1  15
ATOM     15  C   UNL     1      33.834  56.265  26.095  1.00  0.00     0.000 C 
BRANCH  15  16
ATOM     16  C   UNL     1      34.702  57.297  26.841  1.00  0.00     0.000 C 
BRANCH  16  17
ATOM     17  C   UNL     1      35.486  56.668  28.008  1.00  0.00     0.000 C 
BRANCH  17  18
ATOM     18  C   UNL     1      35.161  57.332  29.364  1.00  0.00    -0.000 C 
BRANCH  18  19
ATOM     19  C   UNL     1      34.518  56.376  30.387  1.00  0.00    -0.000 C 
BRANCH  19  20
ATOM     20  C   UNL     1      33.891  57.064  31.613  1.00  0.00    -0.000 C 
BRANCH  20  21
ATOM     21  C   UNL     1      32.477  56.571  31.987  1.00  0.00    -0.000 C 
BRANCH  21  22
ATOM     22  C   UNL     1      32.387  55.780  33.308  1.00  0.00    -0.000 C 
BRANCH  22  23
ATOM     23  C   UNL     1      33.658  55.817  34.174  1.00  0.00    -0.000 C 
BRANCH  23  24
ATOM     24  C   UNL     1      34.038  54.434  34.731  1.00  0.00    -0.000 C 
BRANCH  24  25
ATOM     25  C   UNL     1      35.532  54.120  34.559  1.00  0.00    -0.003 C 
ATOM     26  C   UNL     1      36.182  54.943  33.445  1.00  0.00     0.004 C 
ENDBRANCH  24  25
ENDBRANCH  23  24
ENDBRANCH  22  23
ENDBRANCH  21  22
ENDBRANCH  20  21
ENDBRANCH  19  20
ENDBRANCH  18  19
ENDBRANCH  17  18
ENDBRANCH  16  17
ENDBRANCH  15  16
ENDBRANCH   1  15
TORSDOF 22
ENDMDL
MODEL 9
REMARK VINA RESULT:    -4.670      2.504      6.424
REMARK INTER + INTRA:         -13.935
REMARK INTER:                 -10.651
REMARK INTRA:                  -3.285
REMARK UNBOUND:                -3.260
REMARK SMILES CCCCCCCCCCCCCCCCCCCCCCCC(=O)[O-]
REMARK SMILES IDX 13 1 14 2 15 3 16 4 17 5 18 6 19 7 20 8 21 9 22 10 23 11
REMARK SMILES IDX 24 12 25 13 26 14 12 15 11 16 10 17 9 18 8 19 7 20 6 21 5 22
REMARK SMILES IDX 4 23 3 24 2 25 1 26
REMARK H PARENT
REMARK Flexibility Score: inf
ROOT
ATOM      1  C   UNL     1      32.803  55.526  32.341  1.00  0.00     0.000 C 
ENDROOT
BRANCH   1   2
ATOM      2  C   UNL     1      32.996  55.757  33.850  1.00  0.00     0.000 C 
BRANCH   2   3
ATOM      3  C   UNL     1      34.346  56.412  34.183  1.00  0.00     0.000 C 
BRANCH   3   4
ATOM      4  C   UNL     1      35.184  55.567  35.160  1.00  0.00     0.000 C 
BRANCH   4   5
ATOM      5  C   UNL     1      35.044  54.057  34.906  1.00  0.00     0.000 C 
BRANCH   5   6
ATOM      6  C   UNL     1      36.109  53.523  33.932  1.00  0.00     0.000 C 
BRANCH   6   7
ATOM      7  C   UNL     1      35.731  52.157  33.336  1.00  0.00     0.000 C 
BRANCH   7   8
ATOM      8  C   UNL     1      34.600  52.253  32.297  1.00  0.00     0.000 C 
BRANCH   8   9
ATOM      9  C   UNL     1      33.329  51.501  32.748  1.00  0.00     0.000 C 
BRANCH   9  10
ATOM     10  C   UNL     1      32.044  51.998  32.058  1.00  0.00     0.006 C 
BRANCH  10  11
ATOM     11  C   UNL     1      30.965  50.915  31.892  1.00  0.00     0.053 C 
BRANCH  11  12
ATOM     12  C   UNL     1      29.852  51.064  32.885  1.00  0.00     0.041 C 
ATOM     13  O   UNL     1      28.890  51.841  32.651  1.00  0.00    -0.550 OA
ATOM     14  O   UNL     1      29.898  50.374  34.091  1.00  0.00    -0.550 OA
ENDBRANCH  11  12
ENDBRANCH  10  11
ENDBRANCH   9  10
ENDBRANCH   8   9
ENDBRANCH   7   8
ENDBRANCH   6   7
ENDBRANCH   5   6
ENDBRANCH   4   5
ENDBRANCH   3   4
ENDBRANCH   2   3
ENDBRANCH   1   2
BRANCH   1  15
ATOM     15  C   UNL     1      34.123  55.652  31.559  1.00  0.00     0.000 C 
BRANCH  15  16
ATOM     16  C   UNL     1      34.115  56.783  30.512  1.00  0.00     0.000 C 
BRANCH  16  17
ATOM     17  C   UNL     1      35.311  57.738  30.673  1.00  0.00     0.000 C 
BRANCH  17  18
ATOM     18  C   UNL     1      35.907  58.175  29.316  1.00  0.00    -0.000 C 
BRANCH  18  19
ATOM     19  C   UNL     1      36.693  57.063  28.595  1.00  0.00    -0.000 C 
BRANCH  19  20
ATOM     20  C   UNL     1      35.992  56.470  27.359  1.00  0.00    -0.000 C 
BRANCH  20  21
ATOM     21  C   UNL     1      34.673  57.163  26.960  1.00  0.00    -0.000 C 
BRANCH  21  22
ATOM     22  C   UNL     1      33.702  56.299  26.131  1.00  0.00    -0.000 C 
BRANCH  22  23
ATOM     23  C   UNL     1      32.260  56.250  26.666  1.00  0.00    -0.000 C 
BRANCH  23  24
ATOM     24  C   UNL     1      31.864  54.856  27.183  1.00  0.00    -0.000 C 
BRANCH  24  25
ATOM     25  C   UNL     1      32.830  54.331  28.256  1.00  0.00    -0.003 C 
ATOM     26  C   UNL     1      32.665  52.832  28.514  1.00  0.00     0.004 C 
ENDBRANCH  24  25
ENDBRANCH  23  24
ENDBRANCH  22  23
ENDBRANCH  21  22
ENDBRANCH  20  21
ENDBRANCH  19  20
ENDBRANCH  18  19
ENDBRANCH  17  18
ENDBRANCH  16  17
ENDBRANCH  15  16
ENDBRANCH   1  15
TORSDOF 22
ENDMDL
