MODEL 1
REMARK VINA RESULT:    -5.234      0.000      0.000
REMARK INTER + INTRA:          -8.896
REMARK INTER:                  -7.683
REMARK INTRA:                  -1.213
REMARK UNBOUND:                -1.213
REMARK SMILES O=c1c(O[C@H]2O[C@H](CO)[C@H](O)[C@H](O)[C@@H]2O)c(-c2ccc(O)c(O)c2)oc2cc(O)cc(O)c12
REMARK SMILES IDX 4 1 3 2 16 3 25 4 2 5 26 6 1 7 33 8 27 9 31 10 28 11 30 12
REMARK SMILES IDX 17 13 18 14 19 15 20 16 24 17 22 18 21 19 23 21 32 23 29 25
REMARK SMILES IDX 5 27 14 28 6 29 12 30 7 31 10 32 15 33 13 35 8 37 9 38 11 40
REMARK H PARENT 21 20 23 22 32 24 29 26 15 34 13 36 9 39 11 41
REMARK Flexibility Score: inf
ROOT
ATOM      1  O   UNL     1      14.181  -6.869   7.774  1.00  0.00    -0.454 OA
ENDROOT
BRANCH   1   2
ATOM      2  C   UNL     1      14.027  -6.381   9.086  1.00  0.00     0.214 A 
ATOM      3  C   UNL     1      12.889  -5.600   9.406  1.00  0.00     0.180 A 
ATOM      4  O   UNL     1      12.672  -5.264  10.674  1.00  0.00    -0.452 OA
ATOM      5  C   UNL     1      14.964  -6.639  10.116  1.00  0.00     0.239 A 
ATOM      6  C   UNL     1      13.467  -5.590  11.680  1.00  0.00     0.146 A 
ATOM      7  O   UNL     1      16.103  -7.082   9.827  1.00  0.00    -0.285 OA
ATOM      8  C   UNL     1      14.644  -6.332  11.456  1.00  0.00     0.111 A 
ATOM      9  C   UNL     1      13.121  -5.175  12.968  1.00  0.00     0.094 A 
ATOM     10  C   UNL     1      15.455  -6.679  12.578  1.00  0.00     0.134 A 
ATOM     11  C   UNL     1      13.929  -5.502  14.055  1.00  0.00     0.123 A 
ATOM     12  C   UNL     1      15.093  -6.245  13.858  1.00  0.00     0.093 A 
BRANCH   3  13
ATOM     13  C   UNL     1      11.923  -5.056   8.394  1.00  0.00     0.025 A 
ATOM     14  C   UNL     1      10.771  -5.737   7.956  1.00  0.00     0.016 A 
ATOM     15  C   UNL     1       9.936  -5.177   6.990  1.00  0.00     0.051 A 
ATOM     16  C   UNL     1      10.182  -3.887   6.501  1.00  0.00     0.157 A 
ATOM     17  C   UNL     1      12.165  -3.770   7.877  1.00  0.00     0.062 A 
ATOM     18  C   UNL     1      11.292  -3.171   6.961  1.00  0.00     0.158 A 
BRANCH  16  19
ATOM     19  O   UNL     1       9.320  -3.310   5.567  1.00  0.00    -0.504 OA
ATOM     20  H   UNL     1       9.304  -2.308   5.421  1.00  0.00     0.293 HD
ENDBRANCH  16  19
BRANCH  18  21
ATOM     21  O   UNL     1      11.560  -1.875   6.515  1.00  0.00    -0.504 OA
ATOM     22  H   UNL     1      12.349  -1.343   6.859  1.00  0.00     0.293 HD
ENDBRANCH  18  21
ENDBRANCH   3  13
BRANCH  10  23
ATOM     23  O   UNL     1      16.575  -7.503  12.484  1.00  0.00    -0.507 OA
ATOM     24  H   UNL     1      16.574  -8.464  12.788  1.00  0.00     0.293 HD
ENDBRANCH  10  23
BRANCH  11  25
ATOM     25  O   UNL     1      13.541  -5.121  15.335  1.00  0.00    -0.508 OA
ATOM     26  H   UNL     1      14.212  -4.932  16.070  1.00  0.00     0.293 HD
ENDBRANCH  11  25
ENDBRANCH   1   2
BRANCH   1  27
ATOM     27  C   UNL     1      14.301  -6.112   6.564  1.00  0.00     0.339 C 
ATOM     28  C   UNL     1      14.560  -7.027   5.346  1.00  0.00     0.214 C 
ATOM     29  O   UNL     1      15.281  -5.094   6.667  1.00  0.00    -0.332 OA
ATOM     30  C   UNL     1      16.026  -7.547   5.255  1.00  0.00     0.180 C 
ATOM     31  C   UNL     1      16.636  -5.529   6.750  1.00  0.00     0.179 C 
ATOM     32  C   UNL     1      16.890  -7.035   6.422  1.00  0.00     0.177 C 
BRANCH  28  33
ATOM     33  O   UNL     1      14.168  -6.373   4.162  1.00  0.00    -0.384 OA
ATOM     34  H   UNL     1      13.213  -6.602   3.996  1.00  0.00     0.211 HD
ENDBRANCH  28  33
BRANCH  30  35
ATOM     35  O   UNL     1      16.596  -7.208   4.014  1.00  0.00    -0.387 OA
ATOM     36  H   UNL     1      16.991  -8.036   3.631  1.00  0.00     0.211 HD
ENDBRANCH  30  35
BRANCH  31  37
ATOM     37  C   UNL     1      17.482  -4.584   5.874  1.00  0.00     0.191 C 
BRANCH  37  38
ATOM     38  O   UNL     1      18.732  -4.344   6.474  1.00  0.00    -0.394 OA
ATOM     39  H   UNL     1      18.555  -3.996   7.390  1.00  0.00     0.210 HD
ENDBRANCH  37  38
ENDBRANCH  31  37
BRANCH  32  40
ATOM     40  O   UNL     1      18.250  -7.275   6.161  1.00  0.00    -0.387 OA
ATOM     41  H   UNL     1      18.712  -7.334   7.038  1.00  0.00     0.211 HD
ENDBRANCH  32  40
ENDBRANCH   1  27
TORSDOF 12
ENDMDL
MODEL 2
REMARK VINA RESULT:    -5.121      3.390      5.851
REMARK INTER + INTRA:          -8.729
REMARK INTER:                  -7.107
REMARK INTRA:                  -1.622
REMARK UNBOUND:                -1.213
REMARK SMILES O=c1c(O[C@H]2O[C@H](CO)[C@H](O)[C@H](O)[C@@H]2O)c(-c2ccc(O)c(O)c2)oc2cc(O)cc(O)c12
REMARK SMILES IDX 4 1 3 2 16 3 25 4 2 5 26 6 1 7 33 8 27 9 31 10 28 11 30 12
REMARK SMILES IDX 17 13 18 14 19 15 20 16 24 17 22 18 21 19 23 21 32 23 29 25
REMARK SMILES IDX 5 27 14 28 6 29 12 30 7 31 10 32 15 33 13 35 8 37 9 38 11 40
REMARK H PARENT 21 20 23 22 32 24 29 26 15 34 13 36 9 39 11 41
REMARK Flexibility Score: inf
ROOT
ATOM      1  O   UNL     1      15.067  -9.123  10.489  1.00  0.00    -0.454 OA
ENDROOT
BRANCH   1   2
ATOM      2  C   UNL     1      15.178  -7.953  11.263  1.00  0.00     0.214 A 
ATOM      3  C   UNL     1      15.181  -6.692  10.617  1.00  0.00     0.180 A 
ATOM      4  O   UNL     1      15.140  -5.587  11.357  1.00  0.00    -0.452 OA
ATOM      5  C   UNL     1      15.286  -7.974  12.675  1.00  0.00     0.239 A 
ATOM      6  C   UNL     1      15.121  -5.574  12.680  1.00  0.00     0.146 A 
ATOM      7  O   UNL     1      15.561  -9.049  13.265  1.00  0.00    -0.285 OA
ATOM      8  C   UNL     1      15.155  -6.778  13.413  1.00  0.00     0.111 A 
ATOM      9  C   UNL     1      15.075  -4.342  13.336  1.00  0.00     0.094 A 
ATOM     10  C   UNL     1      15.107  -6.710  14.837  1.00  0.00     0.134 A 
ATOM     11  C   UNL     1      15.047  -4.285  14.728  1.00  0.00     0.123 A 
ATOM     12  C   UNL     1      15.070  -5.464  15.473  1.00  0.00     0.093 A 
BRANCH   3  13
ATOM     13  C   UNL     1      15.294  -6.500   9.134  1.00  0.00     0.025 A 
ATOM     14  C   UNL     1      14.249  -6.032   8.315  1.00  0.00     0.016 A 
ATOM     15  C   UNL     1      14.422  -5.906   6.938  1.00  0.00     0.051 A 
ATOM     16  C   UNL     1      15.670  -6.165   6.353  1.00  0.00     0.157 A 
ATOM     17  C   UNL     1      16.535  -6.773   8.527  1.00  0.00     0.062 A 
ATOM     18  C   UNL     1      16.738  -6.581   7.155  1.00  0.00     0.158 A 
BRANCH  16  19
ATOM     19  O   UNL     1      15.855  -5.996   4.980  1.00  0.00    -0.504 OA
ATOM     20  H   UNL     1      15.070  -6.026   4.341  1.00  0.00     0.293 HD
ENDBRANCH  16  19
BRANCH  18  21
ATOM     21  O   UNL     1      18.002  -6.828   6.615  1.00  0.00    -0.504 OA
ATOM     22  H   UNL     1      18.450  -6.178   5.982  1.00  0.00     0.293 HD
ENDBRANCH  18  21
ENDBRANCH   3  13
BRANCH  10  23
ATOM     23  O   UNL     1      15.021  -7.837  15.653  1.00  0.00    -0.507 OA
ATOM     24  H   UNL     1      15.442  -8.720  15.412  1.00  0.00     0.293 HD
ENDBRANCH  10  23
BRANCH  11  25
ATOM     25  O   UNL     1      14.953  -3.050  15.360  1.00  0.00    -0.508 OA
ATOM     26  H   UNL     1      14.241  -2.371  15.119  1.00  0.00     0.293 HD
ENDBRANCH  11  25
ENDBRANCH   1   2
BRANCH   1  27
ATOM     27  C   UNL     1      13.883  -9.685   9.911  1.00  0.00     0.339 C 
ATOM     28  C   UNL     1      12.777  -9.891  10.970  1.00  0.00     0.214 C 
ATOM     29  O   UNL     1      14.152 -10.881   9.202  1.00  0.00    -0.332 OA
ATOM     30  C   UNL     1      13.011 -11.132  11.885  1.00  0.00     0.180 C 
ATOM     31  C   UNL     1      14.530 -12.009   9.987  1.00  0.00     0.179 C 
ATOM     32  C   UNL     1      14.314 -11.870  11.528  1.00  0.00     0.177 C 
BRANCH  28  33
ATOM     33  O   UNL     1      11.516  -9.939  10.346  1.00  0.00    -0.384 OA
ATOM     34  H   UNL     1      11.405 -10.853   9.966  1.00  0.00     0.211 HD
ENDBRANCH  28  33
BRANCH  30  35
ATOM     35  O   UNL     1      11.905 -12.000  11.834  1.00  0.00    -0.387 OA
ATOM     36  H   UNL     1      11.729 -12.204  10.876  1.00  0.00     0.211 HD
ENDBRANCH  30  35
BRANCH  31  37
ATOM     37  C   UNL     1      13.818 -13.243   9.400  1.00  0.00     0.191 C 
BRANCH  37  38
ATOM     38  O   UNL     1      12.484 -12.934   9.074  1.00  0.00    -0.394 OA
ATOM     39  H   UNL     1      12.497 -12.065   8.588  1.00  0.00     0.210 HD
ENDBRANCH  37  38
ENDBRANCH  31  37
BRANCH  32  40
ATOM     40  O   UNL     1      14.349 -13.125  12.160  1.00  0.00    -0.387 OA
ATOM     41  H   UNL     1      14.836 -13.745  11.556  1.00  0.00     0.211 HD
ENDBRANCH  32  40
ENDBRANCH   1  27
TORSDOF 12
ENDMDL
MODEL 3
REMARK VINA RESULT:    -5.106     12.224     15.907
REMARK INTER + INTRA:          -8.707
REMARK INTER:                  -7.355
REMARK INTRA:                  -1.352
REMARK UNBOUND:                -1.213
REMARK SMILES O=c1c(O[C@H]2O[C@H](CO)[C@H](O)[C@H](O)[C@@H]2O)c(-c2ccc(O)c(O)c2)oc2cc(O)cc(O)c12
REMARK SMILES IDX 4 1 3 2 16 3 25 4 2 5 26 6 1 7 33 8 27 9 31 10 28 11 30 12
REMARK SMILES IDX 17 13 18 14 19 15 20 16 24 17 22 18 21 19 23 21 32 23 29 25
REMARK SMILES IDX 5 27 14 28 6 29 12 30 7 31 10 32 15 33 13 35 8 37 9 38 11 40
REMARK H PARENT 21 20 23 22 32 24 29 26 15 34 13 36 9 39 11 41
REMARK Flexibility Score: inf
ROOT
ATOM      1  O   UNL     1      17.235 -14.212  22.100  1.00  0.00    -0.454 OA
ENDROOT
BRANCH   1   2
ATOM      2  C   UNL     1      16.210 -14.719  21.280  1.00  0.00     0.214 A 
ATOM      3  C   UNL     1      15.787 -13.970  20.154  1.00  0.00     0.180 A 
ATOM      4  O   UNL     1      14.924 -14.515  19.302  1.00  0.00    -0.452 OA
ATOM      5  C   UNL     1      15.574 -15.961  21.525  1.00  0.00     0.239 A 
ATOM      6  C   UNL     1      14.400 -15.722  19.440  1.00  0.00     0.146 A 
ATOM      7  O   UNL     1      15.713 -16.524  22.640  1.00  0.00    -0.285 OA
ATOM      8  C   UNL     1      14.730 -16.529  20.548  1.00  0.00     0.111 A 
ATOM      9  C   UNL     1      13.505 -16.178  18.469  1.00  0.00     0.094 A 
ATOM     10  C   UNL     1      14.155 -17.832  20.638  1.00  0.00     0.134 A 
ATOM     11  C   UNL     1      12.935 -17.445  18.574  1.00  0.00     0.123 A 
ATOM     12  C   UNL     1      13.254 -18.264  19.657  1.00  0.00     0.093 A 
BRANCH   3  13
ATOM     13  C   UNL     1      16.197 -12.553  19.877  1.00  0.00     0.025 A 
ATOM     14  C   UNL     1      15.710 -11.437  20.584  1.00  0.00     0.016 A 
ATOM     15  C   UNL     1      16.117 -10.147  20.249  1.00  0.00     0.051 A 
ATOM     16  C   UNL     1      17.085  -9.944  19.255  1.00  0.00     0.157 A 
ATOM     17  C   UNL     1      17.153 -12.329  18.869  1.00  0.00     0.062 A 
ATOM     18  C   UNL     1      17.621 -11.043  18.575  1.00  0.00     0.158 A 
BRANCH  16  19
ATOM     19  O   UNL     1      17.525  -8.655  18.951  1.00  0.00    -0.504 OA
ATOM     20  H   UNL     1      17.775  -8.002  19.683  1.00  0.00     0.293 HD
ENDBRANCH  16  19
BRANCH  18  21
ATOM     21  O   UNL     1      18.602 -10.885  17.594  1.00  0.00    -0.504 OA
ATOM     22  H   UNL     1      19.447 -11.442  17.587  1.00  0.00     0.293 HD
ENDBRANCH  18  21
ENDBRANCH   3  13
BRANCH  10  23
ATOM     23  O   UNL     1      14.499 -18.751  21.627  1.00  0.00    -0.507 OA
ATOM     24  H   UNL     1      15.103 -19.539  21.456  1.00  0.00     0.293 HD
ENDBRANCH  10  23
BRANCH  11  25
ATOM     25  O   UNL     1      12.084 -17.898  17.571  1.00  0.00    -0.508 OA
ATOM     26  H   UNL     1      12.229 -18.780  17.096  1.00  0.00     0.293 HD
ENDBRANCH  11  25
ENDBRANCH   1   2
BRANCH   1  27
ATOM     27  C   UNL     1      18.544 -14.755  22.309  1.00  0.00     0.339 C 
ATOM     28  C   UNL     1      19.269 -14.057  23.481  1.00  0.00     0.214 C 
ATOM     29  O   UNL     1      19.325 -14.732  21.127  1.00  0.00    -0.332 OA
ATOM     30  C   UNL     1      19.829 -12.648  23.119  1.00  0.00     0.180 C 
ATOM     31  C   UNL     1      19.729 -13.446  20.663  1.00  0.00     0.179 C 
ATOM     32  C   UNL     1      19.517 -12.264  21.661  1.00  0.00     0.177 C 
BRANCH  28  33
ATOM     33  O   UNL     1      20.275 -14.898  23.994  1.00  0.00    -0.384 OA
ATOM     34  H   UNL     1      21.149 -14.445  23.840  1.00  0.00     0.211 HD
ENDBRANCH  28  33
BRANCH  30  35
ATOM     35  O   UNL     1      21.211 -12.583  23.376  1.00  0.00    -0.387 OA
ATOM     36  H   UNL     1      21.637 -12.121  22.605  1.00  0.00     0.211 HD
ENDBRANCH  30  35
BRANCH  31  37
ATOM     37  C   UNL     1      21.190 -13.561  20.187  1.00  0.00     0.191 C 
BRANCH  37  38
ATOM     38  O   UNL     1      21.394 -14.778  19.511  1.00  0.00    -0.394 OA
ATOM     39  H   UNL     1      21.286 -15.507  20.181  1.00  0.00     0.210 HD
ENDBRANCH  37  38
ENDBRANCH  31  37
BRANCH  32  40
ATOM     40  O   UNL     1      20.271 -11.140  21.284  1.00  0.00    -0.387 OA
ATOM     41  H   UNL     1      20.864 -11.420  20.538  1.00  0.00     0.211 HD
ENDBRANCH  32  40
ENDBRANCH   1  27
TORSDOF 12
ENDMDL
MODEL 4
REMARK VINA RESULT:    -5.104     11.483     15.232
REMARK INTER + INTRA:          -8.704
REMARK INTER:                  -7.194
REMARK INTRA:                  -1.510
REMARK UNBOUND:                -1.213
REMARK SMILES O=c1c(O[C@H]2O[C@H](CO)[C@H](O)[C@H](O)[C@@H]2O)c(-c2ccc(O)c(O)c2)oc2cc(O)cc(O)c12
REMARK SMILES IDX 4 1 3 2 16 3 25 4 2 5 26 6 1 7 33 8 27 9 31 10 28 11 30 12
REMARK SMILES IDX 17 13 18 14 19 15 20 16 24 17 22 18 21 19 23 21 32 23 29 25
REMARK SMILES IDX 5 27 14 28 6 29 12 30 7 31 10 32 15 33 13 35 8 37 9 38 11 40
REMARK H PARENT 21 20 23 22 32 24 29 26 15 34 13 36 9 39 11 41
REMARK Flexibility Score: inf
ROOT
ATOM      1  O   UNL     1      18.724 -13.367  20.720  1.00  0.00    -0.454 OA
ENDROOT
BRANCH   1   2
ATOM      2  C   UNL     1      17.585 -14.084  20.310  1.00  0.00     0.214 A 
ATOM      3  C   UNL     1      16.617 -13.444  19.497  1.00  0.00     0.180 A 
ATOM      4  O   UNL     1      15.618 -14.163  18.993  1.00  0.00    -0.452 OA
ATOM      5  C   UNL     1      17.357 -15.434  20.672  1.00  0.00     0.239 A 
ATOM      6  C   UNL     1      15.442 -15.455  19.216  1.00  0.00     0.146 A 
ATOM      7  O   UNL     1      18.028 -15.955  21.598  1.00  0.00    -0.285 OA
ATOM      8  C   UNL     1      16.330 -16.172  20.044  1.00  0.00     0.111 A 
ATOM      9  C   UNL     1      14.350 -16.094  18.623  1.00  0.00     0.094 A 
ATOM     10  C   UNL     1      16.109 -17.569  20.234  1.00  0.00     0.134 A 
ATOM     11  C   UNL     1      14.132 -17.455  18.828  1.00  0.00     0.123 A 
ATOM     12  C   UNL     1      15.004 -18.185  19.636  1.00  0.00     0.093 A 
BRANCH   3  13
ATOM     13  C   UNL     1      16.594 -11.972  19.207  1.00  0.00     0.025 A 
ATOM     14  C   UNL     1      17.434 -11.338  18.271  1.00  0.00     0.016 A 
ATOM     15  C   UNL     1      17.372  -9.959  18.077  1.00  0.00     0.051 A 
ATOM     16  C   UNL     1      16.414  -9.189  18.751  1.00  0.00     0.157 A 
ATOM     17  C   UNL     1      15.651 -11.181  19.889  1.00  0.00     0.062 A 
ATOM     18  C   UNL     1      15.535  -9.807  19.647  1.00  0.00     0.158 A 
BRANCH  16  19
ATOM     19  O   UNL     1      16.324  -7.815  18.523  1.00  0.00    -0.504 OA
ATOM     20  H   UNL     1      15.978  -7.189  19.239  1.00  0.00     0.293 HD
ENDBRANCH  16  19
BRANCH  18  21
ATOM     21  O   UNL     1      14.552  -9.079  20.322  1.00  0.00    -0.504 OA
ATOM     22  H   UNL     1      14.779  -8.434  21.067  1.00  0.00     0.293 HD
ENDBRANCH  18  21
ENDBRANCH   3  13
BRANCH  10  23
ATOM     23  O   UNL     1      16.987 -18.392  20.937  1.00  0.00    -0.507 OA
ATOM     24  H   UNL     1      17.318 -18.174  21.863  1.00  0.00     0.293 HD
ENDBRANCH  10  23
BRANCH  11  25
ATOM     25  O   UNL     1      13.067 -18.081  18.189  1.00  0.00    -0.508 OA
ATOM     26  H   UNL     1      12.275 -17.565  17.825  1.00  0.00     0.293 HD
ENDBRANCH  11  25
ENDBRANCH   1   2
BRANCH   1  27
ATOM     27  C   UNL     1      19.946 -13.169  19.998  1.00  0.00     0.339 C 
ATOM     28  C   UNL     1      21.005 -14.229  20.374  1.00  0.00     0.214 C 
ATOM     29  O   UNL     1      20.448 -11.854  20.150  1.00  0.00    -0.332 OA
ATOM     30  C   UNL     1      21.688 -13.967  21.751  1.00  0.00     0.180 C 
ATOM     31  C   UNL     1      20.940 -11.513  21.444  1.00  0.00     0.179 C 
ATOM     32  C   UNL     1      21.135 -12.704  22.435  1.00  0.00     0.177 C 
BRANCH  28  33
ATOM     33  O   UNL     1      21.953 -14.349  19.340  1.00  0.00    -0.384 OA
ATOM     34  H   UNL     1      22.831 -14.050  19.704  1.00  0.00     0.211 HD
ENDBRANCH  28  33
BRANCH  30  35
ATOM     35  O   UNL     1      23.086 -13.894  21.603  1.00  0.00    -0.387 OA
ATOM     36  H   UNL     1      23.276 -13.703  20.646  1.00  0.00     0.211 HD
ENDBRANCH  30  35
BRANCH  31  37
ATOM     37  C   UNL     1      22.228 -10.690  21.250  1.00  0.00     0.191 C 
BRANCH  37  38
ATOM     38  O   UNL     1      22.979 -11.196  20.172  1.00  0.00    -0.394 OA
ATOM     39  H   UNL     1      22.393 -11.837  19.685  1.00  0.00     0.210 HD
ENDBRANCH  37  38
ENDBRANCH  31  37
BRANCH  32  40
ATOM     40  O   UNL     1      21.958 -12.338  23.514  1.00  0.00    -0.387 OA
ATOM     41  H   UNL     1      21.365 -12.175  24.294  1.00  0.00     0.211 HD
ENDBRANCH  32  40
ENDBRANCH   1  27
TORSDOF 12
ENDMDL
MODEL 5
REMARK VINA RESULT:    -5.047      1.290      2.491
REMARK INTER + INTRA:          -8.621
REMARK INTER:                  -7.046
REMARK INTRA:                  -1.575
REMARK UNBOUND:                -1.213
REMARK SMILES O=c1c(O[C@H]2O[C@H](CO)[C@H](O)[C@H](O)[C@@H]2O)c(-c2ccc(O)c(O)c2)oc2cc(O)cc(O)c12
REMARK SMILES IDX 4 1 3 2 16 3 25 4 2 5 26 6 1 7 33 8 27 9 31 10 28 11 30 12
REMARK SMILES IDX 17 13 18 14 19 15 20 16 24 17 22 18 21 19 23 21 32 23 29 25
REMARK SMILES IDX 5 27 14 28 6 29 12 30 7 31 10 32 15 33 13 35 8 37 9 38 11 40
REMARK H PARENT 21 20 23 22 32 24 29 26 15 34 13 36 9 39 11 41
REMARK Flexibility Score: inf
ROOT
ATOM      1  O   UNL     1      13.850  -7.443   8.324  1.00  0.00    -0.454 OA
ENDROOT
BRANCH   1   2
ATOM      2  C   UNL     1      13.976  -6.594   9.440  1.00  0.00     0.214 A 
ATOM      3  C   UNL     1      13.071  -5.515   9.595  1.00  0.00     0.180 A 
ATOM      4  O   UNL     1      13.100  -4.804  10.719  1.00  0.00    -0.452 OA
ATOM      5  C   UNL     1      14.973  -6.770  10.430  1.00  0.00     0.239 A 
ATOM      6  C   UNL     1      13.943  -5.018  11.716  1.00  0.00     0.146 A 
ATOM      7  O   UNL     1      15.951  -7.525  10.204  1.00  0.00    -0.285 OA
ATOM      8  C   UNL     1      14.906  -6.044  11.638  1.00  0.00     0.111 A 
ATOM      9  C   UNL     1      13.865  -4.198  12.845  1.00  0.00     0.094 A 
ATOM     10  C   UNL     1      15.776  -6.248  12.751  1.00  0.00     0.134 A 
ATOM     11  C   UNL     1      14.731  -4.394  13.919  1.00  0.00     0.123 A 
ATOM     12  C   UNL     1      15.686  -5.409  13.867  1.00  0.00     0.093 A 
BRANCH   3  13
ATOM     13  C   UNL     1      12.105  -5.060   8.540  1.00  0.00     0.025 A 
ATOM     14  C   UNL     1      10.978  -5.797   8.130  1.00  0.00     0.016 A 
ATOM     15  C   UNL     1      10.142  -5.320   7.122  1.00  0.00     0.051 A 
ATOM     16  C   UNL     1      10.361  -4.056   6.557  1.00  0.00     0.157 A 
ATOM     17  C   UNL     1      12.322  -3.802   7.948  1.00  0.00     0.062 A 
ATOM     18  C   UNL     1      11.445  -3.284   6.986  1.00  0.00     0.158 A 
BRANCH  16  19
ATOM     19  O   UNL     1       9.497  -3.561   5.579  1.00  0.00    -0.504 OA
ATOM     20  H   UNL     1       8.496  -3.540   5.729  1.00  0.00     0.293 HD
ENDBRANCH  16  19
BRANCH  18  21
ATOM     21  O   UNL     1      11.686  -2.011   6.464  1.00  0.00    -0.504 OA
ATOM     22  H   UNL     1      12.038  -1.875   5.525  1.00  0.00     0.293 HD
ENDBRANCH  18  21
ENDBRANCH   3  13
BRANCH  10  23
ATOM     23  O   UNL     1      16.685  -7.302  12.825  1.00  0.00    -0.507 OA
ATOM     24  H   UNL     1      16.431  -8.258  12.635  1.00  0.00     0.293 HD
ENDBRANCH  10  23
BRANCH  11  25
ATOM     25  O   UNL     1      14.605  -3.598  15.053  1.00  0.00    -0.508 OA
ATOM     26  H   UNL     1      14.733  -3.965  15.988  1.00  0.00     0.293 HD
ENDBRANCH  11  25
ENDBRANCH   1   2
BRANCH   1  27
ATOM     27  C   UNL     1      14.849  -7.768   7.350  1.00  0.00     0.339 C 
ATOM     28  C   UNL     1      15.322  -6.514   6.582  1.00  0.00     0.214 C 
ATOM     29  O   UNL     1      14.419  -8.788   6.466  1.00  0.00    -0.332 OA
ATOM     30  C   UNL     1      14.314  -6.029   5.497  1.00  0.00     0.180 C 
ATOM     31  C   UNL     1      13.379  -8.437   5.556  1.00  0.00     0.179 C 
ATOM     32  C   UNL     1      13.055  -6.913   5.447  1.00  0.00     0.177 C 
BRANCH  28  33
ATOM     33  O   UNL     1      16.601  -6.738   6.037  1.00  0.00    -0.384 OA
ATOM     34  H   UNL     1      17.036  -5.849   5.922  1.00  0.00     0.211 HD
ENDBRANCH  28  33
BRANCH  30  35
ATOM     35  O   UNL     1      14.937  -5.960   4.237  1.00  0.00    -0.387 OA
ATOM     36  H   UNL     1      15.715  -5.346   4.322  1.00  0.00     0.211 HD
ENDBRANCH  30  35
BRANCH  31  37
ATOM     37  C   UNL     1      13.722  -9.066   4.192  1.00  0.00     0.191 C 
BRANCH  37  38
ATOM     38  O   UNL     1      15.104  -8.979   3.942  1.00  0.00    -0.394 OA
ATOM     39  H   UNL     1      15.212  -8.611   3.023  1.00  0.00     0.210 HD
ENDBRANCH  37  38
ENDBRANCH  31  37
BRANCH  32  40
ATOM     40  O   UNL     1      12.312  -6.634   4.286  1.00  0.00    -0.387 OA
ATOM     41  H   UNL     1      12.765  -5.883   3.821  1.00  0.00     0.211 HD
ENDBRANCH  32  40
ENDBRANCH   1  27
TORSDOF 12
ENDMDL
MODEL 6
REMARK VINA RESULT:    -5.045      3.180      5.877
REMARK INTER + INTRA:          -8.617
REMARK INTER:                  -7.013
REMARK INTRA:                  -1.604
REMARK UNBOUND:                -1.213
REMARK SMILES O=c1c(O[C@H]2O[C@H](CO)[C@H](O)[C@H](O)[C@@H]2O)c(-c2ccc(O)c(O)c2)oc2cc(O)cc(O)c12
REMARK SMILES IDX 4 1 3 2 16 3 25 4 2 5 26 6 1 7 33 8 27 9 31 10 28 11 30 12
REMARK SMILES IDX 17 13 18 14 19 15 20 16 24 17 22 18 21 19 23 21 32 23 29 25
REMARK SMILES IDX 5 27 14 28 6 29 12 30 7 31 10 32 15 33 13 35 8 37 9 38 11 40
REMARK H PARENT 21 20 23 22 32 24 29 26 15 34 13 36 9 39 11 41
REMARK Flexibility Score: inf
ROOT
ATOM      1  O   UNL     1      14.008  -7.781  10.234  1.00  0.00    -0.454 OA
ENDROOT
BRANCH   1   2
ATOM      2  C   UNL     1      13.994  -7.462  11.606  1.00  0.00     0.214 A 
ATOM      3  C   UNL     1      13.988  -8.508  12.561  1.00  0.00     0.180 A 
ATOM      4  O   UNL     1      14.122  -8.207  13.850  1.00  0.00    -0.452 OA
ATOM      5  C   UNL     1      13.990  -6.129  12.084  1.00  0.00     0.239 A 
ATOM      6  C   UNL     1      14.239  -6.977  14.321  1.00  0.00     0.146 A 
ATOM      7  O   UNL     1      13.722  -5.185  11.299  1.00  0.00    -0.285 OA
ATOM      8  C   UNL     1      14.217  -5.867  13.452  1.00  0.00     0.111 A 
ATOM      9  C   UNL     1      14.376  -6.799  15.700  1.00  0.00     0.094 A 
ATOM     10  C   UNL     1      14.371  -4.562  14.008  1.00  0.00     0.134 A 
ATOM     11  C   UNL     1      14.508  -5.519  16.236  1.00  0.00     0.123 A 
ATOM     12  C   UNL     1      14.498  -4.407  15.393  1.00  0.00     0.093 A 
BRANCH   3  13
ATOM     13  C   UNL     1      13.773  -9.956  12.231  1.00  0.00     0.025 A 
ATOM     14  C   UNL     1      12.527 -10.509  11.878  1.00  0.00     0.016 A 
ATOM     15  C   UNL     1      12.402 -11.872  11.612  1.00  0.00     0.051 A 
ATOM     16  C   UNL     1      13.531 -12.701  11.608  1.00  0.00     0.157 A 
ATOM     17  C   UNL     1      14.894 -10.807  12.241  1.00  0.00     0.062 A 
ATOM     18  C   UNL     1      14.788 -12.162  11.905  1.00  0.00     0.158 A 
BRANCH  16  19
ATOM     19  O   UNL     1      13.411 -14.057  11.298  1.00  0.00    -0.504 OA
ATOM     20  H   UNL     1      14.165 -14.557  10.844  1.00  0.00     0.293 HD
ENDBRANCH  16  19
BRANCH  18  21
ATOM     21  O   UNL     1      15.941 -12.950  11.890  1.00  0.00    -0.504 OA
ATOM     22  H   UNL     1      16.856 -12.557  11.715  1.00  0.00     0.293 HD
ENDBRANCH  18  21
ENDBRANCH   3  13
BRANCH  10  23
ATOM     23  O   UNL     1      14.478  -3.409  13.232  1.00  0.00    -0.507 OA
ATOM     24  H   UNL     1      15.358  -3.060  12.888  1.00  0.00     0.293 HD
ENDBRANCH  10  23
BRANCH  11  25
ATOM     25  O   UNL     1      14.691  -5.367  17.606  1.00  0.00    -0.508 OA
ATOM     26  H   UNL     1      13.990  -5.647  18.281  1.00  0.00     0.293 HD
ENDBRANCH  11  25
ENDBRANCH   1   2
BRANCH   1  27
ATOM     27  C   UNL     1      15.140  -8.095   9.416  1.00  0.00     0.339 C 
ATOM     28  C   UNL     1      15.918  -6.824   9.010  1.00  0.00     0.214 C 
ATOM     29  O   UNL     1      14.782  -8.869   8.285  1.00  0.00    -0.332 OA
ATOM     30  C   UNL     1      15.230  -6.006   7.875  1.00  0.00     0.180 C 
ATOM     31  C   UNL     1      14.009  -8.207   7.287  1.00  0.00     0.179 C 
ATOM     32  C   UNL     1      13.909  -6.654   7.422  1.00  0.00     0.177 C 
BRANCH  28  33
ATOM     33  O   UNL     1      17.245  -7.158   8.677  1.00  0.00    -0.384 OA
ATOM     34  H   UNL     1      17.342  -7.046   7.691  1.00  0.00     0.211 HD
ENDBRANCH  28  33
BRANCH  30  35
ATOM     35  O   UNL     1      16.109  -5.830   6.790  1.00  0.00    -0.387 OA
ATOM     36  H   UNL     1      16.970  -5.493   7.156  1.00  0.00     0.211 HD
ENDBRANCH  30  35
BRANCH  31  37
ATOM     37  C   UNL     1      14.551  -8.646   5.913  1.00  0.00     0.191 C 
BRANCH  37  38
ATOM     38  O   UNL     1      15.958  -8.655   5.917  1.00  0.00    -0.394 OA
ATOM     39  H   UNL     1      16.246  -9.482   5.442  1.00  0.00     0.210 HD
ENDBRANCH  37  38
ENDBRANCH  31  37
BRANCH  32  40
ATOM     40  O   UNL     1      13.469  -6.068   6.222  1.00  0.00    -0.387 OA
ATOM     41  H   UNL     1      14.003  -6.468   5.487  1.00  0.00     0.211 HD
ENDBRANCH  32  40
ENDBRANCH   1  27
TORSDOF 12
ENDMDL
MODEL 7
REMARK VINA RESULT:    -5.028     14.127     17.810
REMARK INTER + INTRA:          -8.592
REMARK INTER:                  -7.062
REMARK INTRA:                  -1.530
REMARK UNBOUND:                -1.213
REMARK SMILES O=c1c(O[C@H]2O[C@H](CO)[C@H](O)[C@H](O)[C@@H]2O)c(-c2ccc(O)c(O)c2)oc2cc(O)cc(O)c12
REMARK SMILES IDX 4 1 3 2 16 3 25 4 2 5 26 6 1 7 33 8 27 9 31 10 28 11 30 12
REMARK SMILES IDX 17 13 18 14 19 15 20 16 24 17 22 18 21 19 23 21 32 23 29 25
REMARK SMILES IDX 5 27 14 28 6 29 12 30 7 31 10 32 15 33 13 35 8 37 9 38 11 40
REMARK H PARENT 21 20 23 22 32 24 29 26 15 34 13 36 9 39 11 41
REMARK Flexibility Score: inf
ROOT
ATOM      1  O   UNL     1      23.960 -12.087  20.697  1.00  0.00    -0.454 OA
ENDROOT
BRANCH   1   2
ATOM      2  C   UNL     1      24.497 -11.848  19.418  1.00  0.00     0.214 A 
ATOM      3  C   UNL     1      24.921 -12.945  18.628  1.00  0.00     0.180 A 
ATOM      4  O   UNL     1      25.291 -12.730  17.368  1.00  0.00    -0.452 OA
ATOM      5  C   UNL     1      24.633 -10.548  18.873  1.00  0.00     0.239 A 
ATOM      6  C   UNL     1      25.317 -11.540  16.791  1.00  0.00     0.146 A 
ATOM      7  O   UNL     1      24.533  -9.544  19.621  1.00  0.00    -0.285 OA
ATOM      8  C   UNL     1      24.951 -10.383  17.508  1.00  0.00     0.111 A 
ATOM      9  C   UNL     1      25.725 -11.452  15.458  1.00  0.00     0.094 A 
ATOM     10  C   UNL     1      24.973  -9.126  16.832  1.00  0.00     0.134 A 
ATOM     11  C   UNL     1      25.761 -10.218  14.811  1.00  0.00     0.123 A 
ATOM     12  C   UNL     1      25.393  -9.061  15.499  1.00  0.00     0.093 A 
BRANCH   3  13
ATOM     13  C   UNL     1      25.050 -14.353  19.131  1.00  0.00     0.025 A 
ATOM     14  C   UNL     1      26.002 -14.769  20.081  1.00  0.00     0.016 A 
ATOM     15  C   UNL     1      26.077 -16.103  20.479  1.00  0.00     0.051 A 
ATOM     16  C   UNL     1      25.150 -17.039  20.002  1.00  0.00     0.157 A 
ATOM     17  C   UNL     1      24.138 -15.311  18.648  1.00  0.00     0.062 A 
ATOM     18  C   UNL     1      24.162 -16.637  19.097  1.00  0.00     0.158 A 
BRANCH  16  19
ATOM     19  O   UNL     1      25.199 -18.365  20.436  1.00  0.00    -0.504 OA
ATOM     20  H   UNL     1      24.498 -19.035  20.144  1.00  0.00     0.293 HD
ENDBRANCH  16  19
BRANCH  18  21
ATOM     21  O   UNL     1      23.206 -17.534  18.615  1.00  0.00    -0.504 OA
ATOM     22  H   UNL     1      23.061 -17.681  17.625  1.00  0.00     0.293 HD
ENDBRANCH  18  21
ENDBRANCH   3  13
BRANCH  10  23
ATOM     23  O   UNL     1      24.523  -7.940  17.410  1.00  0.00    -0.507 OA
ATOM     24  H   UNL     1      23.763  -7.400  17.029  1.00  0.00     0.293 HD
ENDBRANCH  10  23
BRANCH  11  25
ATOM     25  O   UNL     1      26.123 -10.159  13.470  1.00  0.00    -0.508 OA
ATOM     26  H   UNL     1      26.440 -10.974  12.958  1.00  0.00     0.293 HD
ENDBRANCH  11  25
ENDBRANCH   1   2
BRANCH   1  27
ATOM     27  C   UNL     1      22.693 -11.662  21.212  1.00  0.00     0.339 C 
ATOM     28  C   UNL     1      22.482 -12.140  22.665  1.00  0.00     0.214 C 
ATOM     29  O   UNL     1      21.620 -12.054  20.374  1.00  0.00    -0.332 OA
ATOM     30  C   UNL     1      22.107 -13.649  22.779  1.00  0.00     0.180 C 
ATOM     31  C   UNL     1      21.340 -13.451  20.319  1.00  0.00     0.179 C 
ATOM     32  C   UNL     1      22.046 -14.330  21.400  1.00  0.00     0.177 C 
BRANCH  28  33
ATOM     33  O   UNL     1      21.533 -11.321  23.308  1.00  0.00    -0.384 OA
ATOM     34  H   UNL     1      21.543 -11.555  24.276  1.00  0.00     0.211 HD
ENDBRANCH  28  33
BRANCH  30  35
ATOM     35  O   UNL     1      20.896 -13.807  23.478  1.00  0.00    -0.387 OA
ATOM     36  H   UNL     1      20.484 -14.659  23.172  1.00  0.00     0.211 HD
ENDBRANCH  30  35
BRANCH  31  37
ATOM     37  C   UNL     1      19.808 -13.618  20.331  1.00  0.00     0.191 C 
BRANCH  37  38
ATOM     38  O   UNL     1      19.410 -14.579  19.382  1.00  0.00    -0.394 OA
ATOM     39  H   UNL     1      19.054 -15.359  19.889  1.00  0.00     0.210 HD
ENDBRANCH  37  38
ENDBRANCH  31  37
BRANCH  32  40
ATOM     40  O   UNL     1      21.432 -15.590  21.509  1.00  0.00    -0.387 OA
ATOM     41  H   UNL     1      20.655 -15.487  22.118  1.00  0.00     0.211 HD
ENDBRANCH  32  40
ENDBRANCH   1  27
TORSDOF 12
ENDMDL
MODEL 8
REMARK VINA RESULT:    -4.989     10.575     14.439
REMARK INTER + INTRA:          -8.535
REMARK INTER:                  -6.954
REMARK INTRA:                  -1.580
REMARK UNBOUND:                -1.213
REMARK SMILES O=c1c(O[C@H]2O[C@H](CO)[C@H](O)[C@H](O)[C@@H]2O)c(-c2ccc(O)c(O)c2)oc2cc(O)cc(O)c12
REMARK SMILES IDX 4 1 3 2 16 3 25 4 2 5 26 6 1 7 33 8 27 9 31 10 28 11 30 12
REMARK SMILES IDX 17 13 18 14 19 15 20 16 24 17 22 18 21 19 23 21 32 23 29 25
REMARK SMILES IDX 5 27 14 28 6 29 12 30 7 31 10 32 15 33 13 35 8 37 9 38 11 40
REMARK H PARENT 21 20 23 22 32 24 29 26 15 34 13 36 9 39 11 41
REMARK Flexibility Score: inf
ROOT
ATOM      1  O   UNL     1      19.125 -11.968  20.332  1.00  0.00    -0.454 OA
ENDROOT
BRANCH   1   2
ATOM      2  C   UNL     1      18.070 -12.900  20.348  1.00  0.00     0.214 A 
ATOM      3  C   UNL     1      16.870 -12.602  19.657  1.00  0.00     0.180 A 
ATOM      4  O   UNL     1      15.934 -13.541  19.552  1.00  0.00    -0.452 OA
ATOM      5  C   UNL     1      18.152 -14.140  21.028  1.00  0.00     0.239 A 
ATOM      6  C   UNL     1      16.030 -14.752  20.075  1.00  0.00     0.146 A 
ATOM      7  O   UNL     1      19.066 -14.333  21.868  1.00  0.00    -0.285 OA
ATOM      8  C   UNL     1      17.169 -15.130  20.815  1.00  0.00     0.111 A 
ATOM      9  C   UNL     1      14.973 -15.646  19.889  1.00  0.00     0.094 A 
ATOM     10  C   UNL     1      17.233 -16.456  21.338  1.00  0.00     0.134 A 
ATOM     11  C   UNL     1      15.037 -16.933  20.420  1.00  0.00     0.123 A 
ATOM     12  C   UNL     1      16.159 -17.332  21.146  1.00  0.00     0.093 A 
BRANCH   3  13
ATOM     13  C   UNL     1      16.538 -11.258  19.076  1.00  0.00     0.025 A 
ATOM     14  C   UNL     1      17.132 -10.731  17.914  1.00  0.00     0.016 A 
ATOM     15  C   UNL     1      16.791  -9.461  17.451  1.00  0.00     0.051 A 
ATOM     16  C   UNL     1      15.787  -8.720  18.089  1.00  0.00     0.157 A 
ATOM     17  C   UNL     1      15.546 -10.492  19.715  1.00  0.00     0.062 A 
ATOM     18  C   UNL     1      15.147  -9.246  19.215  1.00  0.00     0.158 A 
BRANCH  16  19
ATOM     19  O   UNL     1      15.416  -7.467  17.599  1.00  0.00    -0.504 OA
ATOM     20  H   UNL     1      14.789  -7.381  16.808  1.00  0.00     0.293 HD
ENDBRANCH  16  19
BRANCH  18  21
ATOM     21  O   UNL     1      14.127  -8.549  19.867  1.00  0.00    -0.504 OA
ATOM     22  H   UNL     1      13.732  -7.699  19.486  1.00  0.00     0.293 HD
ENDBRANCH  18  21
ENDBRANCH   3  13
BRANCH  10  23
ATOM     23  O   UNL     1      18.357 -16.968  21.984  1.00  0.00    -0.507 OA
ATOM     24  H   UNL     1      18.944 -16.412  22.585  1.00  0.00     0.293 HD
ENDBRANCH  10  23
BRANCH  11  25
ATOM     25  O   UNL     1      13.995 -17.824  20.181  1.00  0.00    -0.508 OA
ATOM     26  H   UNL     1      13.048 -17.646  20.494  1.00  0.00     0.293 HD
ENDBRANCH  11  25
ENDBRANCH   1   2
BRANCH   1  27
ATOM     27  C   UNL     1      19.521 -11.071  21.376  1.00  0.00     0.339 C 
ATOM     28  C   UNL     1      18.774  -9.722  21.280  1.00  0.00     0.214 C 
ATOM     29  O   UNL     1      20.925 -10.886  21.416  1.00  0.00    -0.332 OA
ATOM     30  C   UNL     1      19.321  -8.783  20.162  1.00  0.00     0.180 C 
ATOM     31  C   UNL     1      21.497 -10.167  20.326  1.00  0.00     0.179 C 
ATOM     32  C   UNL     1      20.487  -9.428  19.392  1.00  0.00     0.177 C 
BRANCH  28  33
ATOM     33  O   UNL     1      18.769  -9.084  22.536  1.00  0.00    -0.384 OA
ATOM     34  H   UNL     1      18.503  -8.135  22.387  1.00  0.00     0.211 HD
ENDBRANCH  28  33
BRANCH  30  35
ATOM     35  O   UNL     1      19.695  -7.538  20.701  1.00  0.00    -0.387 OA
ATOM     36  H   UNL     1      20.436  -7.181  20.141  1.00  0.00     0.211 HD
ENDBRANCH  30  35
BRANCH  31  37
ATOM     37  C   UNL     1      22.568  -9.221  20.904  1.00  0.00     0.191 C 
BRANCH  37  38
ATOM     38  O   UNL     1      22.125  -8.655  22.114  1.00  0.00    -0.394 OA
ATOM     39  H   UNL     1      22.911  -8.616  22.723  1.00  0.00     0.210 HD
ENDBRANCH  37  38
ENDBRANCH  31  37
BRANCH  32  40
ATOM     40  O   UNL     1      21.138  -8.464  18.603  1.00  0.00    -0.387 OA
ATOM     41  H   UNL     1      20.451  -7.808  18.313  1.00  0.00     0.211 HD
ENDBRANCH  32  40
ENDBRANCH   1  27
TORSDOF 12
ENDMDL
MODEL 9
REMARK VINA RESULT:    -4.987      2.826      7.557
REMARK INTER + INTRA:          -8.533
REMARK INTER:                  -6.926
REMARK INTRA:                  -1.607
REMARK UNBOUND:                -1.213
REMARK SMILES O=c1c(O[C@H]2O[C@H](CO)[C@H](O)[C@H](O)[C@@H]2O)c(-c2ccc(O)c(O)c2)oc2cc(O)cc(O)c12
REMARK SMILES IDX 4 1 3 2 16 3 25 4 2 5 26 6 1 7 33 8 27 9 31 10 28 11 30 12
REMARK SMILES IDX 17 13 18 14 19 15 20 16 24 17 22 18 21 19 23 21 32 23 29 25
REMARK SMILES IDX 5 27 14 28 6 29 12 30 7 31 10 32 15 33 13 35 8 37 9 38 11 40
REMARK H PARENT 21 20 23 22 32 24 29 26 15 34 13 36 9 39 11 41
REMARK Flexibility Score: inf
ROOT
ATOM      1  O   UNL     1      12.740  -7.184   9.183  1.00  0.00    -0.454 OA
ENDROOT
BRANCH   1   2
ATOM      2  C   UNL     1      13.945  -6.781   8.576  1.00  0.00     0.214 A 
ATOM      3  C   UNL     1      15.118  -6.680   9.364  1.00  0.00     0.180 A 
ATOM      4  O   UNL     1      16.280  -6.441   8.764  1.00  0.00    -0.452 OA
ATOM      5  C   UNL     1      14.043  -6.469   7.198  1.00  0.00     0.239 A 
ATOM      6  C   UNL     1      16.425  -6.261   7.461  1.00  0.00     0.146 A 
ATOM      7  O   UNL     1      13.000  -6.278   6.525  1.00  0.00    -0.285 OA
ATOM      8  C   UNL     1      15.310  -6.304   6.599  1.00  0.00     0.111 A 
ATOM      9  C   UNL     1      17.706  -6.019   6.957  1.00  0.00     0.094 A 
ATOM     10  C   UNL     1      15.523  -6.128   5.199  1.00  0.00     0.134 A 
ATOM     11  C   UNL     1      17.902  -5.831   5.590  1.00  0.00     0.123 A 
ATOM     12  C   UNL     1      16.814  -5.878   4.718  1.00  0.00     0.093 A 
BRANCH   3  13
ATOM     13  C   UNL     1      15.143  -6.761  10.862  1.00  0.00     0.025 A 
ATOM     14  C   UNL     1      14.775  -5.704  11.716  1.00  0.00     0.016 A 
ATOM     15  C   UNL     1      14.852  -5.846  13.101  1.00  0.00     0.051 A 
ATOM     16  C   UNL     1      15.216  -7.074  13.669  1.00  0.00     0.157 A 
ATOM     17  C   UNL     1      15.525  -7.981  11.450  1.00  0.00     0.062 A 
ATOM     18  C   UNL     1      15.536  -8.154  12.839  1.00  0.00     0.158 A 
BRANCH  16  19
ATOM     19  O   UNL     1      15.250  -7.229  15.056  1.00  0.00    -0.504 OA
ATOM     20  H   UNL     1      15.750  -7.998  15.483  1.00  0.00     0.293 HD
ENDBRANCH  16  19
BRANCH  18  21
ATOM     21  O   UNL     1      15.883  -9.401  13.365  1.00  0.00    -0.504 OA
ATOM     22  H   UNL     1      16.409  -9.492  14.225  1.00  0.00     0.293 HD
ENDBRANCH  18  21
ENDBRANCH   3  13
BRANCH  10  23
ATOM     23  O   UNL     1      14.511  -6.264   4.250  1.00  0.00    -0.507 OA
ATOM     24  H   UNL     1      14.251  -5.525   3.618  1.00  0.00     0.293 HD
ENDBRANCH  10  23
BRANCH  11  25
ATOM     25  O   UNL     1      19.190  -5.639   5.104  1.00  0.00    -0.508 OA
ATOM     26  H   UNL     1      19.398  -5.621   4.113  1.00  0.00     0.293 HD
ENDBRANCH  11  25
ENDBRANCH   1   2
BRANCH   1  27
ATOM     27  C   UNL     1      11.923  -8.312   8.849  1.00  0.00     0.339 C 
ATOM     28  C   UNL     1      10.599  -8.310   9.646  1.00  0.00     0.214 C 
ATOM     29  O   UNL     1      12.618  -9.537   8.999  1.00  0.00    -0.332 OA
ATOM     30  C   UNL     1      10.761  -8.770  11.127  1.00  0.00     0.180 C 
ATOM     31  C   UNL     1      12.933  -9.924  10.334  1.00  0.00     0.179 C 
ATOM     32  C   UNL     1      12.223  -9.113  11.464  1.00  0.00     0.177 C 
BRANCH  28  33
ATOM     33  O   UNL     1       9.629  -9.075   8.970  1.00  0.00    -0.384 OA
ATOM     34  H   UNL     1       9.607  -9.974   9.397  1.00  0.00     0.211 HD
ENDBRANCH  28  33
BRANCH  30  35
ATOM     35  O   UNL     1       9.908  -9.854  11.404  1.00  0.00    -0.387 OA
ATOM     36  H   UNL     1       9.198  -9.861  10.707  1.00  0.00     0.211 HD
ENDBRANCH  30  35
BRANCH  31  37
ATOM     37  C   UNL     1      12.683 -11.440  10.450  1.00  0.00     0.191 C 
BRANCH  37  38
ATOM     38  O   UNL     1      11.497 -11.797   9.782  1.00  0.00    -0.394 OA
ATOM     39  H   UNL     1      11.746 -12.021   8.845  1.00  0.00     0.210 HD
ENDBRANCH  37  38
ENDBRANCH  31  37
BRANCH  32  40
ATOM     40  O   UNL     1      12.291  -9.791  12.694  1.00  0.00    -0.387 OA
ATOM     41  H   UNL     1      12.902 -10.564  12.570  1.00  0.00     0.211 HD
ENDBRANCH  32  40
ENDBRANCH   1  27
TORSDOF 12
ENDMDL
