MODEL 1
REMARK VINA RESULT:    -8.608      0.000      0.000
REMARK INTER + INTRA:          -8.811
REMARK INTER:                  -9.363
REMARK INTRA:                   0.552
REMARK UNBOUND:                 0.552
REMARK SMILES C[C@H]1[C@H]2C3=CC[C@@H]4[C@@]5(C)CC[C@H](O)C(C)(C)[C@H]5CC[C@]4(C)[C@]3(C)CC[C@]2(C(=O)[O-])CC[C@@H]1C
REMARK SMILES IDX 26 1 30 2 25 3 3 4 31 5 24 6 4 7 2 8 32 9 22 10 5 11 1 12
REMARK SMILES IDX 33 13 23 14 20 15 6 16 7 17 19 18 21 19 8 20 18 21 17 22
REMARK SMILES IDX 10 23 9 24 14 25 11 26 12 27 15 28 16 29 27 30 28 31 29 32
REMARK SMILES IDX 13 33
REMARK H PARENT 13 34
REMARK Flexibility Score: inf
ROOT
ATOM      1  C   UNL     1     -14.944 -38.374 -19.078  1.00  0.00     0.017 C 
ATOM      2  C   UNL     1     -15.190 -38.124 -17.559  1.00  0.00     0.014 C 
ATOM      3  C   UNL     1     -15.047 -37.000 -19.825  1.00  0.00     0.014 C 
ATOM      4  C   UNL     1     -13.513 -38.992 -19.234  1.00  0.00     0.030 C 
ATOM      5  C   UNL     1     -15.030 -39.389 -16.702  1.00  0.00     0.004 C 
ATOM      6  C   UNL     1     -13.795 -36.592 -20.626  1.00  0.00     0.013 C 
ATOM      7  C   UNL     1     -13.035 -38.996 -20.702  1.00  0.00    -0.063 C 
ATOM      8  C   UNL     1     -13.296 -40.292 -18.371  1.00  0.00    -0.003 C 
ATOM      9  C   UNL     1     -13.649 -40.054 -16.874  1.00  0.00    -0.011 C 
ATOM     10  C   UNL     1     -13.207 -37.724 -21.551  1.00  0.00    -0.006 C 
ATOM     11  C   UNL     1     -12.202 -39.951 -21.154  1.00  0.00    -0.027 C 
ATOM     12  C   UNL     1     -14.020 -41.555 -18.891  1.00  0.00     0.008 C 
ATOM     13  C   UNL     1     -12.550 -39.272 -16.131  1.00  0.00     0.008 C 
ATOM     14  C   UNL     1     -14.245 -38.008 -22.677  1.00  0.00     0.017 C 
ATOM     15  C   UNL     1     -11.780 -37.318 -22.199  1.00  0.00    -0.020 C 
ATOM     16  C   UNL     1     -11.555 -39.914 -22.503  1.00  0.00     0.032 C 
ATOM     17  C   UNL     1     -11.245 -38.497 -23.123  1.00  0.00     0.006 C 
ATOM     18  C   UNL     1     -10.724 -37.085 -21.073  1.00  0.00     0.008 C 
ATOM     19  C   UNL     1     -11.946 -36.002 -23.041  1.00  0.00     0.012 C 
ATOM     20  C   UNL     1      -9.726 -38.404 -23.643  1.00  0.00    -0.025 C 
ATOM     21  C   UNL     1      -9.275 -36.966 -21.558  1.00  0.00     0.005 C 
ATOM     22  C   UNL     1      -8.761 -38.161 -22.422  1.00  0.00     0.003 C 
ATOM     23  C   UNL     1      -9.488 -37.251 -24.659  1.00  0.00     0.010 C 
ATOM     24  C   UNL     1      -9.425 -39.737 -24.426  1.00  0.00     0.012 C 
ATOM     25  C   UNL     1      -7.201 -38.021 -22.806  1.00  0.00    -0.006 C 
ATOM     26  C   UNL     1      -8.019 -37.074 -25.121  1.00  0.00     0.033 C 
ATOM     27  C   UNL     1      -6.935 -37.874 -24.353  1.00  0.00     0.120 C 
ATOM     28  C   UNL     1      -6.498 -36.805 -22.122  1.00  0.00     0.014 C 
ATOM     29  C   UNL     1      -6.451 -39.270 -22.267  1.00  0.00     0.014 C 
ENDROOT
BRANCH   1  30
ATOM     30  C   UNL     1     -16.033 -39.287 -19.639  1.00  0.00     0.048 C 
ATOM     31  O   UNL     1     -16.988 -39.664 -18.907  1.00  0.00    -0.550 OA
ATOM     32  O   UNL     1     -16.061 -39.623 -20.987  1.00  0.00    -0.550 OA
ENDBRANCH   1  30
BRANCH  27  33
ATOM     33  O   UNL     1      -6.710 -39.125 -24.960  1.00  0.00    -0.393 OA
ATOM     34  H   UNL     1      -6.465 -39.767 -24.243  1.00  0.00     0.210 HD
ENDBRANCH  27  33
TORSDOF 2
ENDMDL
MODEL 2
REMARK VINA RESULT:    -8.116      1.947      4.160
REMARK INTER + INTRA:          -8.275
REMARK INTER:                  -8.793
REMARK INTRA:                   0.518
REMARK UNBOUND:                 0.552
REMARK SMILES C[C@H]1[C@H]2C3=CC[C@@H]4[C@@]5(C)CC[C@H](O)C(C)(C)[C@H]5CC[C@]4(C)[C@]3(C)CC[C@]2(C(=O)[O-])CC[C@@H]1C
REMARK SMILES IDX 26 1 30 2 25 3 3 4 31 5 24 6 4 7 2 8 32 9 22 10 5 11 1 12
REMARK SMILES IDX 33 13 23 14 20 15 6 16 7 17 19 18 21 19 8 20 18 21 17 22
REMARK SMILES IDX 10 23 9 24 14 25 11 26 12 27 15 28 16 29 27 30 28 31 29 32
REMARK SMILES IDX 13 33
REMARK H PARENT 13 34
REMARK Flexibility Score: inf
ROOT
ATOM      1  C   UNL     1     -15.734 -40.408 -17.244  1.00  0.00     0.017 C 
ATOM      2  C   UNL     1     -16.795 -41.509 -16.941  1.00  0.00     0.014 C 
ATOM      3  C   UNL     1     -14.406 -40.787 -16.502  1.00  0.00     0.014 C 
ATOM      4  C   UNL     1     -15.519 -40.367 -18.795  1.00  0.00     0.030 C 
ATOM      5  C   UNL     1     -18.121 -41.294 -17.685  1.00  0.00     0.004 C 
ATOM      6  C   UNL     1     -13.167 -40.938 -17.407  1.00  0.00     0.013 C 
ATOM      7  C   UNL     1     -14.276 -39.541 -19.191  1.00  0.00    -0.063 C 
ATOM      8  C   UNL     1     -16.851 -40.152 -19.606  1.00  0.00    -0.003 C 
ATOM      9  C   UNL     1     -17.939 -41.195 -19.213  1.00  0.00    -0.011 C 
ATOM     10  C   UNL     1     -12.955 -39.761 -18.433  1.00  0.00    -0.006 C 
ATOM     11  C   UNL     1     -14.231 -38.880 -20.362  1.00  0.00    -0.027 C 
ATOM     12  C   UNL     1     -17.440 -38.724 -19.538  1.00  0.00     0.008 C 
ATOM     13  C   UNL     1     -17.676 -42.577 -19.841  1.00  0.00     0.008 C 
ATOM     14  C   UNL     1     -12.620 -38.474 -17.622  1.00  0.00     0.017 C 
ATOM     15  C   UNL     1     -11.774 -40.071 -19.497  1.00  0.00    -0.020 C 
ATOM     16  C   UNL     1     -12.999 -38.216 -20.891  1.00  0.00     0.032 C 
ATOM     17  C   UNL     1     -11.607 -38.846 -20.498  1.00  0.00     0.006 C 
ATOM     18  C   UNL     1     -12.133 -41.330 -20.348  1.00  0.00     0.008 C 
ATOM     19  C   UNL     1     -10.431 -40.328 -18.725  1.00  0.00     0.012 C 
ATOM     20  C   UNL     1     -10.676 -39.064 -21.791  1.00  0.00    -0.025 C 
ATOM     21  C   UNL     1     -11.235 -41.565 -21.568  1.00  0.00     0.005 C 
ATOM     22  C   UNL     1     -11.128 -40.362 -22.559  1.00  0.00     0.003 C 
ATOM     23  C   UNL     1      -9.168 -39.230 -21.448  1.00  0.00     0.010 C 
ATOM     24  C   UNL     1     -10.779 -37.753 -22.659  1.00  0.00     0.012 C 
ATOM     25  C   UNL     1     -10.258 -40.716 -23.869  1.00  0.00    -0.006 C 
ATOM     26  C   UNL     1      -8.247 -39.525 -22.660  1.00  0.00     0.033 C 
ATOM     27  C   UNL     1      -8.936 -39.866 -24.006  1.00  0.00     0.120 C 
ATOM     28  C   UNL     1      -9.825 -42.216 -23.944  1.00  0.00     0.014 C 
ATOM     29  C   UNL     1     -11.148 -40.495 -25.123  1.00  0.00     0.014 C 
ENDROOT
BRANCH   1  30
ATOM     30  C   UNL     1     -16.204 -39.064 -16.689  1.00  0.00     0.048 C 
ATOM     31  O   UNL     1     -17.058 -39.021 -15.763  1.00  0.00    -0.550 OA
ATOM     32  O   UNL     1     -15.621 -37.874 -17.107  1.00  0.00    -0.550 OA
ENDBRANCH   1  30
BRANCH  27  33
ATOM     33  O   UNL     1      -9.147 -38.703 -24.771  1.00  0.00    -0.393 OA
ATOM     34  H   UNL     1     -10.046 -38.350 -24.540  1.00  0.00     0.210 HD
ENDBRANCH  27  33
TORSDOF 2
ENDMDL
MODEL 3
REMARK VINA RESULT:    -8.023      2.192      7.969
REMARK INTER + INTRA:          -8.174
REMARK INTER:                  -8.873
REMARK INTRA:                   0.699
REMARK UNBOUND:                 0.552
REMARK SMILES C[C@H]1[C@H]2C3=CC[C@@H]4[C@@]5(C)CC[C@H](O)C(C)(C)[C@H]5CC[C@]4(C)[C@]3(C)CC[C@]2(C(=O)[O-])CC[C@@H]1C
REMARK SMILES IDX 26 1 30 2 25 3 3 4 31 5 24 6 4 7 2 8 32 9 22 10 5 11 1 12
REMARK SMILES IDX 33 13 23 14 20 15 6 16 7 17 19 18 21 19 8 20 18 21 17 22
REMARK SMILES IDX 10 23 9 24 14 25 11 26 12 27 15 28 16 29 27 30 28 31 29 32
REMARK SMILES IDX 13 33
REMARK H PARENT 13 34
REMARK Flexibility Score: inf
ROOT
ATOM      1  C   UNL     1      -9.844 -40.431 -23.524  1.00  0.00     0.017 C 
ATOM      2  C   UNL     1      -9.909 -40.944 -24.995  1.00  0.00     0.014 C 
ATOM      3  C   UNL     1     -10.235 -38.913 -23.515  1.00  0.00     0.014 C 
ATOM      4  C   UNL     1     -10.857 -41.277 -22.679  1.00  0.00     0.030 C 
ATOM      5  C   UNL     1      -9.628 -42.448 -25.125  1.00  0.00     0.004 C 
ATOM      6  C   UNL     1     -11.437 -38.548 -22.622  1.00  0.00     0.013 C 
ATOM      7  C   UNL     1     -11.110 -40.663 -21.285  1.00  0.00    -0.063 C 
ATOM      8  C   UNL     1     -10.614 -42.829 -22.781  1.00  0.00    -0.003 C 
ATOM      9  C   UNL     1     -10.574 -43.308 -24.263  1.00  0.00    -0.011 C 
ATOM     10  C   UNL     1     -11.384 -39.153 -21.168  1.00  0.00    -0.006 C 
ATOM     11  C   UNL     1     -11.410 -41.444 -20.231  1.00  0.00    -0.027 C 
ATOM     12  C   UNL     1      -9.373 -43.352 -22.023  1.00  0.00     0.008 C 
ATOM     13  C   UNL     1     -11.980 -43.398 -24.886  1.00  0.00     0.008 C 
ATOM     14  C   UNL     1     -10.196 -38.484 -20.415  1.00  0.00     0.017 C 
ATOM     15  C   UNL     1     -12.762 -38.922 -20.349  1.00  0.00    -0.020 C 
ATOM     16  C   UNL     1     -11.845 -40.910 -18.903  1.00  0.00     0.032 C 
ATOM     17  C   UNL     1     -12.642 -39.549 -18.892  1.00  0.00     0.006 C 
ATOM     18  C   UNL     1     -13.945 -39.638 -21.073  1.00  0.00     0.008 C 
ATOM     19  C   UNL     1     -13.060 -37.382 -20.255  1.00  0.00     0.012 C 
ATOM     20  C   UNL     1     -13.987 -39.663 -18.018  1.00  0.00    -0.025 C 
ATOM     21  C   UNL     1     -15.242 -39.727 -20.262  1.00  0.00     0.005 C 
ATOM     22  C   UNL     1     -15.104 -40.391 -18.855  1.00  0.00     0.003 C 
ATOM     23  C   UNL     1     -14.561 -38.285 -17.580  1.00  0.00     0.010 C 
ATOM     24  C   UNL     1     -13.609 -40.415 -16.686  1.00  0.00     0.012 C 
ATOM     25  C   UNL     1     -16.522 -40.551 -18.104  1.00  0.00    -0.006 C 
ATOM     26  C   UNL     1     -15.903 -38.347 -16.807  1.00  0.00     0.033 C 
ATOM     27  C   UNL     1     -16.638 -39.712 -16.774  1.00  0.00     0.120 C 
ATOM     28  C   UNL     1     -17.745 -40.144 -18.988  1.00  0.00     0.014 C 
ATOM     29  C   UNL     1     -16.742 -42.056 -17.788  1.00  0.00     0.014 C 
ENDROOT
BRANCH   1  30
ATOM     30  C   UNL     1      -8.415 -40.542 -22.995  1.00  0.00     0.048 C 
ATOM     31  O   UNL     1      -7.555 -41.219 -23.621  1.00  0.00    -0.550 OA
ATOM     32  O   UNL     1      -8.003 -39.812 -21.887  1.00  0.00    -0.550 OA
ENDBRANCH   1  30
BRANCH  27  33
ATOM     33  O   UNL     1     -16.246 -40.466 -15.651  1.00  0.00    -0.393 OA
ATOM     34  H   UNL     1     -16.468 -39.937 -14.841  1.00  0.00     0.210 HD
ENDBRANCH  27  33
TORSDOF 2
ENDMDL
MODEL 4
REMARK VINA RESULT:    -7.729      1.423      2.105
REMARK INTER + INTRA:          -7.855
REMARK INTER:                  -8.806
REMARK INTRA:                   0.950
REMARK UNBOUND:                 0.552
REMARK SMILES C[C@H]1[C@H]2C3=CC[C@@H]4[C@@]5(C)CC[C@H](O)C(C)(C)[C@H]5CC[C@]4(C)[C@]3(C)CC[C@]2(C(=O)[O-])CC[C@@H]1C
REMARK SMILES IDX 26 1 30 2 25 3 3 4 31 5 24 6 4 7 2 8 32 9 22 10 5 11 1 12
REMARK SMILES IDX 33 13 23 14 20 15 6 16 7 17 19 18 21 19 8 20 18 21 17 22
REMARK SMILES IDX 10 23 9 24 14 25 11 26 12 27 15 28 16 29 27 30 28 31 29 32
REMARK SMILES IDX 13 33
REMARK H PARENT 13 34
REMARK Flexibility Score: inf
ROOT
ATOM      1  C   UNL     1     -13.379 -38.262 -20.086  1.00  0.00     0.017 C 
ATOM      2  C   UNL     1     -13.836 -38.136 -18.600  1.00  0.00     0.014 C 
ATOM      3  C   UNL     1     -13.226 -36.820 -20.679  1.00  0.00     0.014 C 
ATOM      4  C   UNL     1     -12.009 -39.023 -20.099  1.00  0.00     0.030 C 
ATOM      5  C   UNL     1     -13.940 -39.487 -17.880  1.00  0.00     0.004 C 
ATOM      6  C   UNL     1     -11.830 -36.482 -21.235  1.00  0.00     0.013 C 
ATOM      7  C   UNL     1     -11.308 -38.939 -21.472  1.00  0.00    -0.063 C 
ATOM      8  C   UNL     1     -12.061 -40.417 -19.369  1.00  0.00    -0.003 C 
ATOM      9  C   UNL     1     -12.622 -40.288 -17.921  1.00  0.00    -0.011 C 
ATOM     10  C   UNL     1     -11.217 -37.579 -22.187  1.00  0.00    -0.006 C 
ATOM     11  C   UNL     1     -10.512 -39.934 -21.903  1.00  0.00    -0.027 C 
ATOM     12  C   UNL     1     -12.815 -41.531 -20.130  1.00  0.00     0.008 C 
ATOM     13  C   UNL     1     -11.582 -39.713 -16.942  1.00  0.00     0.008 C 
ATOM     14  C   UNL     1     -12.087 -37.630 -23.478  1.00  0.00     0.017 C 
ATOM     15  C   UNL     1      -9.673 -37.278 -22.568  1.00  0.00    -0.020 C 
ATOM     16  C   UNL     1      -9.660 -39.841 -23.130  1.00  0.00     0.032 C 
ATOM     17  C   UNL     1      -9.117 -38.415 -23.531  1.00  0.00     0.006 C 
ATOM     18  C   UNL     1      -8.790 -37.279 -21.280  1.00  0.00     0.008 C 
ATOM     19  C   UNL     1      -9.572 -35.876 -23.270  1.00  0.00     0.012 C 
ATOM     20  C   UNL     1      -7.534 -38.448 -23.809  1.00  0.00    -0.025 C 
ATOM     21  C   UNL     1      -7.278 -37.280 -21.530  1.00  0.00     0.005 C 
ATOM     22  C   UNL     1      -6.755 -38.437 -22.441  1.00  0.00     0.003 C 
ATOM     23  C   UNL     1      -7.025 -37.235 -24.641  1.00  0.00     0.010 C 
ATOM     24  C   UNL     1      -7.245 -39.724 -24.686  1.00  0.00     0.012 C 
ATOM     25  C   UNL     1      -5.148 -38.441 -22.572  1.00  0.00    -0.006 C 
ATOM     26  C   UNL     1      -5.491 -37.185 -24.859  1.00  0.00     0.033 C 
ATOM     27  C   UNL     1      -4.626 -38.175 -24.037  1.00  0.00     0.120 C 
ATOM     28  C   UNL     1      -4.444 -37.386 -21.659  1.00  0.00     0.014 C 
ATOM     29  C   UNL     1      -4.618 -39.814 -22.076  1.00  0.00     0.014 C 
ENDROOT
BRANCH   1  30
ATOM     30  C   UNL     1     -14.451 -38.985 -20.901  1.00  0.00     0.048 C 
ATOM     31  O   UNL     1     -14.532 -38.807 -22.146  1.00  0.00    -0.550 OA
ATOM     32  O   UNL     1     -15.277 -39.935 -20.313  1.00  0.00    -0.550 OA
ENDBRANCH   1  30
BRANCH  27  33
ATOM     33  O   UNL     1      -4.433 -39.378 -24.743  1.00  0.00    -0.393 OA
ATOM     34  H   UNL     1      -5.314 -39.658 -25.107  1.00  0.00     0.210 HD
ENDBRANCH  27  33
TORSDOF 2
ENDMDL
MODEL 5
REMARK VINA RESULT:    -7.271      1.808      4.029
REMARK INTER + INTRA:          -7.357
REMARK INTER:                  -7.933
REMARK INTRA:                   0.576
REMARK UNBOUND:                 0.552
REMARK SMILES C[C@H]1[C@H]2C3=CC[C@@H]4[C@@]5(C)CC[C@H](O)C(C)(C)[C@H]5CC[C@]4(C)[C@]3(C)CC[C@]2(C(=O)[O-])CC[C@@H]1C
REMARK SMILES IDX 26 1 30 2 25 3 3 4 31 5 24 6 4 7 2 8 32 9 22 10 5 11 1 12
REMARK SMILES IDX 33 13 23 14 20 15 6 16 7 17 19 18 21 19 8 20 18 21 17 22
REMARK SMILES IDX 10 23 9 24 14 25 11 26 12 27 15 28 16 29 27 30 28 31 29 32
REMARK SMILES IDX 13 33
REMARK H PARENT 13 34
REMARK Flexibility Score: inf
ROOT
ATOM      1  C   UNL     1     -15.460 -40.364 -17.726  1.00  0.00     0.017 C 
ATOM      2  C   UNL     1     -16.768 -41.199 -17.876  1.00  0.00     0.014 C 
ATOM      3  C   UNL     1     -14.284 -41.346 -17.393  1.00  0.00     0.014 C 
ATOM      4  C   UNL     1     -15.207 -39.627 -19.085  1.00  0.00     0.030 C 
ATOM      5  C   UNL     1     -17.982 -40.356 -18.289  1.00  0.00     0.004 C 
ATOM      6  C   UNL     1     -13.102 -41.317 -18.381  1.00  0.00     0.013 C 
ATOM      7  C   UNL     1     -13.790 -39.020 -19.166  1.00  0.00    -0.063 C 
ATOM      8  C   UNL     1     -16.426 -38.748 -19.557  1.00  0.00    -0.003 C 
ATOM      9  C   UNL     1     -17.747 -39.573 -19.597  1.00  0.00    -0.011 C 
ATOM     10  C   UNL     1     -12.582 -39.874 -18.743  1.00  0.00    -0.006 C 
ATOM     11  C   UNL     1     -13.556 -37.904 -19.881  1.00  0.00    -0.027 C 
ATOM     12  C   UNL     1     -16.643 -37.442 -18.759  1.00  0.00     0.008 C 
ATOM     13  C   UNL     1     -17.823 -40.495 -20.828  1.00  0.00     0.008 C 
ATOM     14  C   UNL     1     -11.955 -39.257 -17.457  1.00  0.00     0.017 C 
ATOM     15  C   UNL     1     -11.492 -39.889 -19.940  1.00  0.00    -0.020 C 
ATOM     16  C   UNL     1     -12.186 -37.368 -20.154  1.00  0.00     0.032 C 
ATOM     17  C   UNL     1     -11.004 -38.408 -20.251  1.00  0.00     0.006 C 
ATOM     18  C   UNL     1     -12.134 -40.458 -21.245  1.00  0.00     0.008 C 
ATOM     19  C   UNL     1     -10.272 -40.786 -19.523  1.00  0.00     0.012 C 
ATOM     20  C   UNL     1     -10.128 -38.176 -21.580  1.00  0.00    -0.025 C 
ATOM     21  C   UNL     1     -11.296 -40.270 -22.514  1.00  0.00     0.005 C 
ATOM     22  C   UNL     1     -10.872 -38.798 -22.821  1.00  0.00     0.003 C 
ATOM     23  C   UNL     1      -8.716 -38.826 -21.513  1.00  0.00     0.010 C 
ATOM     24  C   UNL     1      -9.883 -36.625 -21.707  1.00  0.00     0.012 C 
ATOM     25  C   UNL     1     -10.088 -38.660 -24.223  1.00  0.00    -0.006 C 
ATOM     26  C   UNL     1      -7.871 -38.698 -22.806  1.00  0.00     0.033 C 
ATOM     27  C   UNL     1      -8.594 -38.177 -24.075  1.00  0.00     0.120 C 
ATOM     28  C   UNL     1     -10.040 -39.989 -25.044  1.00  0.00     0.014 C 
ATOM     29  C   UNL     1     -10.867 -37.663 -25.124  1.00  0.00     0.014 C 
ENDROOT
BRANCH   1  30
ATOM     30  C   UNL     1     -15.593 -39.391 -16.556  1.00  0.00     0.048 C 
ATOM     31  O   UNL     1     -16.652 -39.358 -15.872  1.00  0.00    -0.550 OA
ATOM     32  O   UNL     1     -14.519 -38.610 -16.148  1.00  0.00    -0.550 OA
ENDBRANCH   1  30
BRANCH  27  33
ATOM     33  O   UNL     1      -8.492 -36.776 -24.171  1.00  0.00    -0.393 OA
ATOM     34  H   UNL     1      -7.527 -36.542 -24.144  1.00  0.00     0.210 HD
ENDBRANCH  27  33
TORSDOF 2
ENDMDL
MODEL 6
REMARK VINA RESULT:    -7.258      1.650      8.079
REMARK INTER + INTRA:          -7.342
REMARK INTER:                  -8.018
REMARK INTRA:                   0.676
REMARK UNBOUND:                 0.552
REMARK SMILES C[C@H]1[C@H]2C3=CC[C@@H]4[C@@]5(C)CC[C@H](O)C(C)(C)[C@H]5CC[C@]4(C)[C@]3(C)CC[C@]2(C(=O)[O-])CC[C@@H]1C
REMARK SMILES IDX 26 1 30 2 25 3 3 4 31 5 24 6 4 7 2 8 32 9 22 10 5 11 1 12
REMARK SMILES IDX 33 13 23 14 20 15 6 16 7 17 19 18 21 19 8 20 18 21 17 22
REMARK SMILES IDX 10 23 9 24 14 25 11 26 12 27 15 28 16 29 27 30 28 31 29 32
REMARK SMILES IDX 13 33
REMARK H PARENT 13 34
REMARK Flexibility Score: inf
ROOT
ATOM      1  C   UNL     1      -6.215 -38.728 -24.218  1.00  0.00     0.017 C 
ATOM      2  C   UNL     1      -4.845 -39.470 -24.186  1.00  0.00     0.014 C 
ATOM      3  C   UNL     1      -7.202 -39.555 -25.112  1.00  0.00     0.014 C 
ATOM      4  C   UNL     1      -6.739 -38.630 -22.745  1.00  0.00     0.030 C 
ATOM      5  C   UNL     1      -3.813 -38.799 -23.268  1.00  0.00     0.004 C 
ATOM      6  C   UNL     1      -8.501 -40.005 -24.415  1.00  0.00     0.013 C 
ATOM      7  C   UNL     1      -8.219 -38.195 -22.679  1.00  0.00    -0.063 C 
ATOM      8  C   UNL     1      -5.715 -37.950 -21.761  1.00  0.00    -0.003 C 
ATOM      9  C   UNL     1      -4.318 -38.638 -21.820  1.00  0.00    -0.011 C 
ATOM     10  C   UNL     1      -9.243 -38.871 -23.609  1.00  0.00    -0.006 C 
ATOM     11  C   UNL     1      -8.685 -37.488 -21.634  1.00  0.00    -0.027 C 
ATOM     12  C   UNL     1      -5.558 -36.422 -21.926  1.00  0.00     0.008 C 
ATOM     13  C   UNL     1      -4.294 -39.977 -21.061  1.00  0.00     0.008 C 
ATOM     14  C   UNL     1      -9.762 -37.819 -24.634  1.00  0.00     0.017 C 
ATOM     15  C   UNL     1     -10.473 -39.442 -22.725  1.00  0.00    -0.020 C 
ATOM     16  C   UNL     1     -10.136 -37.193 -21.414  1.00  0.00     0.032 C 
ATOM     17  C   UNL     1     -11.181 -38.251 -21.943  1.00  0.00     0.006 C 
ATOM     18  C   UNL     1      -9.947 -40.456 -21.661  1.00  0.00     0.008 C 
ATOM     19  C   UNL     1     -11.504 -40.160 -23.668  1.00  0.00     0.012 C 
ATOM     20  C   UNL     1     -12.250 -38.638 -20.806  1.00  0.00    -0.025 C 
ATOM     21  C   UNL     1     -10.965 -40.857 -20.588  1.00  0.00     0.005 C 
ATOM     22  C   UNL     1     -11.608 -39.668 -19.803  1.00  0.00     0.003 C 
ATOM     23  C   UNL     1     -13.546 -39.287 -21.369  1.00  0.00     0.010 C 
ATOM     24  C   UNL     1     -12.702 -37.294 -20.121  1.00  0.00     0.012 C 
ATOM     25  C   UNL     1     -12.584 -40.166 -18.620  1.00  0.00    -0.006 C 
ATOM     26  C   UNL     1     -14.568 -39.752 -20.300  1.00  0.00     0.033 C 
ATOM     27  C   UNL     1     -14.094 -39.755 -18.823  1.00  0.00     0.120 C 
ATOM     28  C   UNL     1     -12.576 -41.714 -18.413  1.00  0.00     0.014 C 
ATOM     29  C   UNL     1     -12.065 -39.581 -17.278  1.00  0.00     0.014 C 
ENDROOT
BRANCH   1  30
ATOM     30  C   UNL     1      -6.048 -37.354 -24.866  1.00  0.00     0.048 C 
ATOM     31  O   UNL     1      -7.053 -36.623 -25.080  1.00  0.00    -0.550 OA
ATOM     32  O   UNL     1      -4.786 -36.834 -25.125  1.00  0.00    -0.550 OA
ENDBRANCH   1  30
BRANCH  27  33
ATOM     33  O   UNL     1     -14.382 -38.525 -18.201  1.00  0.00    -0.393 OA
ATOM     34  H   UNL     1     -15.329 -38.555 -17.901  1.00  0.00     0.210 HD
ENDBRANCH  27  33
TORSDOF 2
ENDMDL
MODEL 7
REMARK VINA RESULT:    -6.237      1.741      7.780
REMARK INTER + INTRA:          -6.232
REMARK INTER:                  -7.003
REMARK INTRA:                   0.770
REMARK UNBOUND:                 0.552
REMARK SMILES C[C@H]1[C@H]2C3=CC[C@@H]4[C@@]5(C)CC[C@H](O)C(C)(C)[C@H]5CC[C@]4(C)[C@]3(C)CC[C@]2(C(=O)[O-])CC[C@@H]1C
REMARK SMILES IDX 26 1 30 2 25 3 3 4 31 5 24 6 4 7 2 8 32 9 22 10 5 11 1 12
REMARK SMILES IDX 33 13 23 14 20 15 6 16 7 17 19 18 21 19 8 20 18 21 17 22
REMARK SMILES IDX 10 23 9 24 14 25 11 26 12 27 15 28 16 29 27 30 28 31 29 32
REMARK SMILES IDX 13 33
REMARK H PARENT 13 34
REMARK Flexibility Score: inf
ROOT
ATOM      1  C   UNL     1      -9.953 -37.392 -23.572  1.00  0.00     0.017 C 
ATOM      2  C   UNL     1      -9.664 -37.847 -25.036  1.00  0.00     0.014 C 
ATOM      3  C   UNL     1     -11.036 -36.261 -23.613  1.00  0.00     0.014 C 
ATOM      4  C   UNL     1     -10.472 -38.640 -22.780  1.00  0.00     0.030 C 
ATOM      5  C   UNL     1      -8.675 -39.018 -25.124  1.00  0.00     0.004 C 
ATOM      6  C   UNL     1     -12.316 -36.547 -22.804  1.00  0.00     0.013 C 
ATOM      7  C   UNL     1     -11.081 -38.252 -21.415  1.00  0.00    -0.063 C 
ATOM      8  C   UNL     1      -9.494 -39.872 -22.841  1.00  0.00    -0.003 C 
ATOM      9  C   UNL     1      -9.131 -40.245 -24.309  1.00  0.00    -0.011 C 
ATOM     10  C   UNL     1     -12.066 -37.072 -21.339  1.00  0.00    -0.006 C 
ATOM     11  C   UNL     1     -11.024 -39.097 -20.369  1.00  0.00    -0.027 C 
ATOM     12  C   UNL     1      -8.206 -39.732 -21.998  1.00  0.00     0.008 C 
ATOM     13  C   UNL     1     -10.270 -41.002 -25.018  1.00  0.00     0.008 C 
ATOM     14  C   UNL     1     -11.407 -35.919 -20.524  1.00  0.00     0.017 C 
ATOM     15  C   UNL     1     -13.428 -37.560 -20.613  1.00  0.00    -0.020 C 
ATOM     16  C   UNL     1     -11.748 -38.868 -19.080  1.00  0.00     0.032 C 
ATOM     17  C   UNL     1     -13.108 -38.071 -19.141  1.00  0.00     0.006 C 
ATOM     18  C   UNL     1     -14.061 -38.751 -21.399  1.00  0.00     0.008 C 
ATOM     19  C   UNL     1     -14.448 -36.365 -20.563  1.00  0.00     0.012 C 
ATOM     20  C   UNL     1     -14.277 -38.845 -18.352  1.00  0.00    -0.025 C 
ATOM     21  C   UNL     1     -15.196 -39.478 -20.670  1.00  0.00     0.005 C 
ATOM     22  C   UNL     1     -14.838 -40.013 -19.246  1.00  0.00     0.003 C 
ATOM     23  C   UNL     1     -15.479 -37.932 -17.974  1.00  0.00     0.010 C 
ATOM     24  C   UNL     1     -13.664 -39.337 -16.987  1.00  0.00     0.012 C 
ATOM     25  C   UNL     1     -16.041 -40.859 -18.584  1.00  0.00    -0.006 C 
ATOM     26  C   UNL     1     -16.664 -38.656 -17.285  1.00  0.00     0.033 C 
ATOM     27  C   UNL     1     -16.637 -40.207 -17.277  1.00  0.00     0.120 C 
ATOM     28  C   UNL     1     -17.248 -41.089 -19.549  1.00  0.00     0.014 C 
ATOM     29  C   UNL     1     -15.515 -42.284 -18.258  1.00  0.00     0.014 C 
ENDROOT
BRANCH   1  30
ATOM     30  C   UNL     1      -8.689 -36.798 -22.953  1.00  0.00     0.048 C 
ATOM     31  O   UNL     1      -7.556 -37.055 -23.444  1.00  0.00    -0.550 OA
ATOM     32  O   UNL     1      -8.765 -35.876 -21.916  1.00  0.00    -0.550 OA
ENDBRANCH   1  30
BRANCH  27  33
ATOM     33  O   UNL     1     -15.997 -40.692 -16.120  1.00  0.00    -0.393 OA
ATOM     34  H   UNL     1     -16.120 -40.016 -15.403  1.00  0.00     0.210 HD
ENDBRANCH  27  33
TORSDOF 2
ENDMDL
