MODEL 1
REMARK VINA RESULT:    -5.094      0.000      0.000
REMARK INTER + INTRA:         -16.746
REMARK INTER:                 -13.432
REMARK INTRA:                  -3.314
REMARK UNBOUND:                -3.314
REMARK SMILES CCCCCCCCCCCCCCCCCCCCCCCCCCCCCC(=O)[O-]
REMARK SMILES IDX 16 1 17 2 18 3 19 4 20 5 21 6 22 7 23 8 24 9 25 10 26 11
REMARK SMILES IDX 27 12 28 13 29 14 30 15 31 16 32 17 15 18 14 19 13 20 12 21
REMARK SMILES IDX 11 22 10 23 9 24 8 25 7 26 6 27 5 28 4 29 3 30 2 31 1 32
REMARK H PARENT
REMARK Flexibility Score: inf
ROOT
ATOM      1  C   UNL     1       6.548  79.196  36.340  1.00  0.00     0.000 C 
ENDROOT
BRANCH   1   2
ATOM      2  C   UNL     1       6.189  80.286  37.369  1.00  0.00     0.000 C 
BRANCH   2   3
ATOM      3  C   UNL     1       5.364  79.796  38.575  1.00  0.00     0.000 C 
BRANCH   3   4
ATOM      4  C   UNL     1       6.194  79.236  39.742  1.00  0.00     0.000 C 
BRANCH   4   5
ATOM      5  C   UNL     1       5.736  77.834  40.179  1.00  0.00     0.000 C 
BRANCH   5   6
ATOM      6  C   UNL     1       5.536  76.876  38.992  1.00  0.00     0.000 C 
BRANCH   6   7
ATOM      7  C   UNL     1       4.246  76.029  39.050  1.00  0.00     0.000 C 
BRANCH   7   8
ATOM      8  C   UNL     1       4.465  74.506  39.101  1.00  0.00     0.000 C 
BRANCH   8   9
ATOM      9  C   UNL     1       5.551  74.032  40.086  1.00  0.00     0.000 C 
BRANCH   9  10
ATOM     10  C   UNL     1       6.035  72.588  39.835  1.00  0.00     0.000 C 
BRANCH  10  11
ATOM     11  C   UNL     1       5.642  72.064  38.445  1.00  0.00     0.000 C 
BRANCH  11  12
ATOM     12  C   UNL     1       6.885  71.657  37.639  1.00  0.00     0.000 C 
BRANCH  12  13
ATOM     13  C   UNL     1       7.757  72.860  37.246  1.00  0.00     0.006 C 
BRANCH  13  14
ATOM     14  C   UNL     1       8.976  72.458  36.404  1.00  0.00     0.053 C 
BRANCH  14  15
ATOM     15  C   UNL     1      10.078  71.963  37.287  1.00  0.00     0.041 C 
ATOM     16  O   UNL     1       9.941  71.972  38.538  1.00  0.00    -0.550 OA
ATOM     17  O   UNL     1      11.277  71.536  36.729  1.00  0.00    -0.550 OA
ENDBRANCH  14  15
ENDBRANCH  13  14
ENDBRANCH  12  13
ENDBRANCH  11  12
ENDBRANCH  10  11
ENDBRANCH   9  10
ENDBRANCH   8   9
ENDBRANCH   7   8
ENDBRANCH   6   7
ENDBRANCH   5   6
ENDBRANCH   4   5
ENDBRANCH   3   4
ENDBRANCH   2   3
ENDBRANCH   1   2
BRANCH   1  18
ATOM     18  C   UNL     1       8.058  78.970  36.127  1.00  0.00     0.000 C 
BRANCH  18  19
ATOM     19  C   UNL     1       8.666  77.807  36.932  1.00  0.00     0.000 C 
BRANCH  19  20
ATOM     20  C   UNL     1       9.369  78.276  38.217  1.00  0.00     0.000 C 
BRANCH  20  21
ATOM     21  C   UNL     1      10.025  79.660  38.069  1.00  0.00     0.000 C 
BRANCH  21  22
ATOM     22  C   UNL     1       9.536  80.728  39.068  1.00  0.00     0.000 C 
BRANCH  22  23
ATOM     23  C   UNL     1      10.095  80.598  40.498  1.00  0.00     0.000 C 
BRANCH  23  24
ATOM     24  C   UNL     1      11.611  80.824  40.634  1.00  0.00    -0.000 C 
BRANCH  24  25
ATOM     25  C   UNL     1      12.075  80.934  42.095  1.00  0.00    -0.000 C 
BRANCH  25  26
ATOM     26  C   UNL     1      11.267  80.035  43.048  1.00  0.00    -0.000 C 
BRANCH  26  27
ATOM     27  C   UNL     1      10.799  80.753  44.332  1.00  0.00    -0.000 C 
BRANCH  27  28
ATOM     28  C   UNL     1       9.760  81.851  44.038  1.00  0.00    -0.000 C 
BRANCH  28  29
ATOM     29  C   UNL     1       8.323  81.310  43.992  1.00  0.00    -0.000 C 
BRANCH  29  30
ATOM     30  C   UNL     1       7.643  81.322  45.369  1.00  0.00    -0.000 C 
BRANCH  30  31
ATOM     31  C   UNL     1       7.537  79.903  45.939  1.00  0.00    -0.003 C 
ATOM     32  C   UNL     1       6.479  79.825  47.035  1.00  0.00     0.004 C 
ENDBRANCH  30  31
ENDBRANCH  29  30
ENDBRANCH  28  29
ENDBRANCH  27  28
ENDBRANCH  26  27
ENDBRANCH  25  26
ENDBRANCH  24  25
ENDBRANCH  23  24
ENDBRANCH  22  23
ENDBRANCH  21  22
ENDBRANCH  20  21
ENDBRANCH  19  20
ENDBRANCH  18  19
ENDBRANCH   1  18
TORSDOF 28
ENDMDL
MODEL 2
REMARK VINA RESULT:    -5.074      3.232      9.346
REMARK INTER + INTRA:         -16.693
REMARK INTER:                 -12.430
REMARK INTRA:                  -4.263
REMARK UNBOUND:                -3.314
REMARK SMILES CCCCCCCCCCCCCCCCCCCCCCCCCCCCCC(=O)[O-]
REMARK SMILES IDX 16 1 17 2 18 3 19 4 20 5 21 6 22 7 23 8 24 9 25 10 26 11
REMARK SMILES IDX 27 12 28 13 29 14 30 15 31 16 32 17 15 18 14 19 13 20 12 21
REMARK SMILES IDX 11 22 10 23 9 24 8 25 7 26 6 27 5 28 4 29 3 30 2 31 1 32
REMARK H PARENT
REMARK Flexibility Score: inf
ROOT
ATOM      1  C   UNL     1       5.591  78.456  40.082  1.00  0.00     0.000 C 
ENDROOT
BRANCH   1   2
ATOM      2  C   UNL     1       5.257  79.604  39.110  1.00  0.00     0.000 C 
BRANCH   2   3
ATOM      3  C   UNL     1       5.971  79.532  37.746  1.00  0.00     0.000 C 
BRANCH   3   4
ATOM      4  C   UNL     1       7.388  80.129  37.726  1.00  0.00     0.000 C 
BRANCH   4   5
ATOM      5  C   UNL     1       8.454  79.116  37.276  1.00  0.00     0.000 C 
BRANCH   5   6
ATOM      6  C   UNL     1       9.352  78.641  38.431  1.00  0.00     0.000 C 
BRANCH   6   7
ATOM      7  C   UNL     1       9.599  79.690  39.537  1.00  0.00     0.000 C 
BRANCH   7   8
ATOM      8  C   UNL     1      10.932  80.454  39.429  1.00  0.00     0.000 C 
BRANCH   8   9
ATOM      9  C   UNL     1      11.699  80.623  40.754  1.00  0.00     0.000 C 
BRANCH   9  10
ATOM     10  C   UNL     1      11.291  79.612  41.847  1.00  0.00     0.000 C 
BRANCH  10  11
ATOM     11  C   UNL     1      10.952  80.290  43.184  1.00  0.00     0.000 C 
BRANCH  11  12
ATOM     12  C   UNL     1       9.931  81.421  42.984  1.00  0.00     0.000 C 
BRANCH  12  13
ATOM     13  C   UNL     1       8.630  81.189  43.769  1.00  0.00     0.006 C 
BRANCH  13  14
ATOM     14  C   UNL     1       8.884  80.723  45.210  1.00  0.00     0.053 C 
BRANCH  14  15
ATOM     15  C   UNL     1       7.587  80.496  45.921  1.00  0.00     0.041 C 
ATOM     16  O   UNL     1       6.772  79.637  45.493  1.00  0.00    -0.550 OA
ATOM     17  O   UNL     1       7.256  81.267  47.028  1.00  0.00    -0.550 OA
ENDBRANCH  14  15
ENDBRANCH  13  14
ENDBRANCH  12  13
ENDBRANCH  11  12
ENDBRANCH  10  11
ENDBRANCH   9  10
ENDBRANCH   8   9
ENDBRANCH   7   8
ENDBRANCH   6   7
ENDBRANCH   5   6
ENDBRANCH   4   5
ENDBRANCH   3   4
ENDBRANCH   2   3
ENDBRANCH   1   2
BRANCH   1  18
ATOM     18  C   UNL     1       5.327  77.039  39.536  1.00  0.00     0.000 C 
BRANCH  18  19
ATOM     19  C   UNL     1       6.583  76.169  39.339  1.00  0.00     0.000 C 
BRANCH  19  20
ATOM     20  C   UNL     1       6.909  75.922  37.857  1.00  0.00     0.000 C 
BRANCH  20  21
ATOM     21  C   UNL     1       5.651  75.834  36.974  1.00  0.00     0.000 C 
BRANCH  21  22
ATOM     22  C   UNL     1       5.279  74.414  36.501  1.00  0.00     0.000 C 
BRANCH  22  23
ATOM     23  C   UNL     1       4.039  73.798  37.179  1.00  0.00     0.000 C 
BRANCH  23  24
ATOM     24  C   UNL     1       4.316  72.565  38.059  1.00  0.00    -0.000 C 
BRANCH  24  25
ATOM     25  C   UNL     1       4.856  72.930  39.451  1.00  0.00    -0.000 C 
BRANCH  25  26
ATOM     26  C   UNL     1       6.042  72.048  39.882  1.00  0.00    -0.000 C 
BRANCH  26  27
ATOM     27  C   UNL     1       7.415  72.589  39.429  1.00  0.00    -0.000 C 
BRANCH  27  28
ATOM     28  C   UNL     1       8.054  71.712  38.336  1.00  0.00    -0.000 C 
BRANCH  28  29
ATOM     29  C   UNL     1       8.455  72.516  37.090  1.00  0.00    -0.000 C 
BRANCH  29  30
ATOM     30  C   UNL     1       9.858  72.157  36.581  1.00  0.00    -0.000 C 
BRANCH  30  31
ATOM     31  C   UNL     1      10.801  71.843  37.748  1.00  0.00    -0.003 C 
ATOM     32  C   UNL     1      12.250  72.153  37.387  1.00  0.00     0.004 C 
ENDBRANCH  30  31
ENDBRANCH  29  30
ENDBRANCH  28  29
ENDBRANCH  27  28
ENDBRANCH  26  27
ENDBRANCH  25  26
ENDBRANCH  24  25
ENDBRANCH  23  24
ENDBRANCH  22  23
ENDBRANCH  21  22
ENDBRANCH  20  21
ENDBRANCH  19  20
ENDBRANCH  18  19
ENDBRANCH   1  18
TORSDOF 28
ENDMDL
MODEL 3
REMARK VINA RESULT:    -5.017      2.623      4.491
REMARK INTER + INTRA:         -16.544
REMARK INTER:                 -13.430
REMARK INTRA:                  -3.114
REMARK UNBOUND:                -3.314
REMARK SMILES CCCCCCCCCCCCCCCCCCCCCCCCCCCCCC(=O)[O-]
REMARK SMILES IDX 16 1 17 2 18 3 19 4 20 5 21 6 22 7 23 8 24 9 25 10 26 11
REMARK SMILES IDX 27 12 28 13 29 14 30 15 31 16 32 17 15 18 14 19 13 20 12 21
REMARK SMILES IDX 11 22 10 23 9 24 8 25 7 26 6 27 5 28 4 29 3 30 2 31 1 32
REMARK H PARENT
REMARK Flexibility Score: inf
ROOT
ATOM      1  C   UNL     1       9.595  76.719  36.621  1.00  0.00     0.000 C 
ENDROOT
BRANCH   1   2
ATOM      2  C   UNL     1       8.219  76.122  36.974  1.00  0.00     0.000 C 
BRANCH   2   3
ATOM      3  C   UNL     1       8.203  74.594  37.174  1.00  0.00     0.000 C 
BRANCH   3   4
ATOM      4  C   UNL     1       7.143  73.846  36.349  1.00  0.00     0.000 C 
BRANCH   4   5
ATOM      5  C   UNL     1       7.260  72.318  36.476  1.00  0.00     0.000 C 
BRANCH   5   6
ATOM      6  C   UNL     1       8.293  71.884  37.530  1.00  0.00     0.000 C 
BRANCH   6   7
ATOM      7  C   UNL     1       7.695  71.404  38.869  1.00  0.00     0.000 C 
BRANCH   7   8
ATOM      8  C   UNL     1       6.323  70.714  38.763  1.00  0.00     0.000 C 
BRANCH   8   9
ATOM      9  C   UNL     1       5.196  71.366  39.586  1.00  0.00     0.000 C 
BRANCH   9  10
ATOM     10  C   UNL     1       4.684  72.699  39.000  1.00  0.00     0.000 C 
BRANCH  10  11
ATOM     11  C   UNL     1       5.007  73.904  39.899  1.00  0.00     0.000 C 
BRANCH  11  12
ATOM     12  C   UNL     1       4.608  75.222  39.217  1.00  0.00     0.000 C 
BRANCH  12  13
ATOM     13  C   UNL     1       5.618  76.351  39.474  1.00  0.00     0.006 C 
BRANCH  13  14
ATOM     14  C   UNL     1       5.321  77.610  38.647  1.00  0.00     0.053 C 
BRANCH  14  15
ATOM     15  C   UNL     1       5.251  78.812  39.536  1.00  0.00     0.041 C 
ATOM     16  O   UNL     1       5.035  79.951  39.046  1.00  0.00    -0.550 OA
ATOM     17  O   UNL     1       5.473  78.681  40.901  1.00  0.00    -0.550 OA
ENDBRANCH  14  15
ENDBRANCH  13  14
ENDBRANCH  12  13
ENDBRANCH  11  12
ENDBRANCH  10  11
ENDBRANCH   9  10
ENDBRANCH   8   9
ENDBRANCH   7   8
ENDBRANCH   6   7
ENDBRANCH   5   6
ENDBRANCH   4   5
ENDBRANCH   3   4
ENDBRANCH   2   3
ENDBRANCH   1   2
BRANCH   1  18
ATOM     18  C   UNL     1       9.634  78.257  36.519  1.00  0.00     0.000 C 
BRANCH  18  19
ATOM     19  C   UNL     1       8.508  78.992  37.270  1.00  0.00     0.000 C 
BRANCH  19  20
ATOM     20  C   UNL     1       9.031  79.847  38.436  1.00  0.00     0.000 C 
BRANCH  20  21
ATOM     21  C   UNL     1      10.536  80.149  38.330  1.00  0.00     0.000 C 
BRANCH  21  22
ATOM     22  C   UNL     1      11.140  80.906  39.530  1.00  0.00     0.000 C 
BRANCH  22  23
ATOM     23  C   UNL     1      10.117  81.536  40.495  1.00  0.00     0.000 C 
BRANCH  23  24
ATOM     24  C   UNL     1      10.720  82.374  41.637  1.00  0.00    -0.000 C 
BRANCH  24  25
ATOM     25  C   UNL     1      11.820  81.632  42.411  1.00  0.00    -0.000 C 
BRANCH  25  26
ATOM     26  C   UNL     1      11.328  81.069  43.756  1.00  0.00    -0.000 C 
BRANCH  26  27
ATOM     27  C   UNL     1       9.987  81.669  44.228  1.00  0.00    -0.000 C 
BRANCH  27  28
ATOM     28  C   UNL     1       9.115  80.636  44.966  1.00  0.00    -0.000 C 
BRANCH  28  29
ATOM     29  C   UNL     1       7.673  81.122  45.177  1.00  0.00    -0.000 C 
BRANCH  29  30
ATOM     30  C   UNL     1       7.226  81.027  46.643  1.00  0.00    -0.000 C 
BRANCH  30  31
ATOM     31  C   UNL     1       7.180  79.567  47.108  1.00  0.00    -0.003 C 
ATOM     32  C   UNL     1       5.897  78.881  46.650  1.00  0.00     0.004 C 
ENDBRANCH  30  31
ENDBRANCH  29  30
ENDBRANCH  28  29
ENDBRANCH  27  28
ENDBRANCH  26  27
ENDBRANCH  25  26
ENDBRANCH  24  25
ENDBRANCH  23  24
ENDBRANCH  22  23
ENDBRANCH  21  22
ENDBRANCH  20  21
ENDBRANCH  19  20
ENDBRANCH  18  19
ENDBRANCH   1  18
TORSDOF 28
ENDMDL
MODEL 4
REMARK VINA RESULT:    -5.015      1.572      3.348
REMARK INTER + INTRA:         -16.538
REMARK INTER:                 -12.338
REMARK INTRA:                  -4.201
REMARK UNBOUND:                -3.314
REMARK SMILES CCCCCCCCCCCCCCCCCCCCCCCCCCCCCC(=O)[O-]
REMARK SMILES IDX 16 1 17 2 18 3 19 4 20 5 21 6 22 7 23 8 24 9 25 10 26 11
REMARK SMILES IDX 27 12 28 13 29 14 30 15 31 16 32 17 15 18 14 19 13 20 12 21
REMARK SMILES IDX 11 22 10 23 9 24 8 25 7 26 6 27 5 28 4 29 3 30 2 31 1 32
REMARK H PARENT
REMARK Flexibility Score: inf
ROOT
ATOM      1  C   UNL     1       6.012  78.340  39.515  1.00  0.00     0.000 C 
ENDROOT
BRANCH   1   2
ATOM      2  C   UNL     1       4.889  77.315  39.266  1.00  0.00     0.000 C 
BRANCH   2   3
ATOM      3  C   UNL     1       5.329  76.029  38.539  1.00  0.00     0.000 C 
BRANCH   3   4
ATOM      4  C   UNL     1       6.616  75.387  39.083  1.00  0.00     0.000 C 
BRANCH   4   5
ATOM      5  C   UNL     1       6.338  74.212  40.035  1.00  0.00     0.000 C 
BRANCH   5   6
ATOM      6  C   UNL     1       4.995  73.518  39.750  1.00  0.00     0.000 C 
BRANCH   6   7
ATOM      7  C   UNL     1       5.064  71.978  39.660  1.00  0.00     0.000 C 
BRANCH   7   8
ATOM      8  C   UNL     1       5.338  71.416  38.254  1.00  0.00     0.000 C 
BRANCH   8   9
ATOM      9  C   UNL     1       5.167  72.423  37.101  1.00  0.00     0.000 C 
BRANCH   9  10
ATOM     10  C   UNL     1       6.301  72.374  36.054  1.00  0.00     0.000 C 
BRANCH  10  11
ATOM     11  C   UNL     1       7.580  73.076  36.534  1.00  0.00     0.000 C 
BRANCH  11  12
ATOM     12  C   UNL     1       8.639  72.051  36.972  1.00  0.00     0.000 C 
BRANCH  12  13
ATOM     13  C   UNL     1      10.059  72.638  36.989  1.00  0.00     0.006 C 
BRANCH  13  14
ATOM     14  C   UNL     1      11.147  71.555  36.967  1.00  0.00     0.053 C 
BRANCH  14  15
ATOM     15  C   UNL     1      12.289  71.945  37.852  1.00  0.00     0.041 C 
ATOM     16  O   UNL     1      12.325  71.556  39.048  1.00  0.00    -0.550 OA
ATOM     17  O   UNL     1      13.290  72.779  37.368  1.00  0.00    -0.550 OA
ENDBRANCH  14  15
ENDBRANCH  13  14
ENDBRANCH  12  13
ENDBRANCH  11  12
ENDBRANCH  10  11
ENDBRANCH   9  10
ENDBRANCH   8   9
ENDBRANCH   7   8
ENDBRANCH   6   7
ENDBRANCH   5   6
ENDBRANCH   4   5
ENDBRANCH   3   4
ENDBRANCH   2   3
ENDBRANCH   1   2
BRANCH   1  18
ATOM     18  C   UNL     1       6.013  79.555  38.566  1.00  0.00     0.000 C 
BRANCH  18  19
ATOM     19  C   UNL     1       6.065  79.213  37.065  1.00  0.00     0.000 C 
BRANCH  19  20
ATOM     20  C   UNL     1       7.483  79.317  36.480  1.00  0.00     0.000 C 
BRANCH  20  21
ATOM     21  C   UNL     1       8.328  78.055  36.730  1.00  0.00     0.000 C 
BRANCH  21  22
ATOM     22  C   UNL     1       9.428  78.204  37.801  1.00  0.00     0.000 C 
BRANCH  22  23
ATOM     23  C   UNL     1      10.103  79.588  37.865  1.00  0.00     0.000 C 
BRANCH  23  24
ATOM     24  C   UNL     1      10.497  80.061  39.276  1.00  0.00    -0.000 C 
BRANCH  24  25
ATOM     25  C   UNL     1       9.523  79.584  40.364  1.00  0.00    -0.000 C 
BRANCH  25  26
ATOM     26  C   UNL     1       8.591  80.702  40.865  1.00  0.00    -0.000 C 
BRANCH  26  27
ATOM     27  C   UNL     1       9.258  82.094  40.908  1.00  0.00    -0.000 C 
BRANCH  27  28
ATOM     28  C   UNL     1       9.077  82.782  42.274  1.00  0.00    -0.000 C 
BRANCH  28  29
ATOM     29  C   UNL     1       9.024  81.782  43.438  1.00  0.00    -0.000 C 
BRANCH  29  30
ATOM     30  C   UNL     1      10.370  81.648  44.165  1.00  0.00    -0.000 C 
BRANCH  30  31
ATOM     31  C   UNL     1      11.233  80.556  43.522  1.00  0.00    -0.003 C 
ATOM     32  C   UNL     1      12.357  81.158  42.686  1.00  0.00     0.004 C 
ENDBRANCH  30  31
ENDBRANCH  29  30
ENDBRANCH  28  29
ENDBRANCH  27  28
ENDBRANCH  26  27
ENDBRANCH  25  26
ENDBRANCH  24  25
ENDBRANCH  23  24
ENDBRANCH  22  23
ENDBRANCH  21  22
ENDBRANCH  20  21
ENDBRANCH  19  20
ENDBRANCH  18  19
ENDBRANCH   1  18
TORSDOF 28
ENDMDL
MODEL 5
REMARK VINA RESULT:    -4.965      3.221      9.062
REMARK INTER + INTRA:         -16.406
REMARK INTER:                 -12.818
REMARK INTRA:                  -3.588
REMARK UNBOUND:                -3.314
REMARK SMILES CCCCCCCCCCCCCCCCCCCCCCCCCCCCCC(=O)[O-]
REMARK SMILES IDX 16 1 17 2 18 3 19 4 20 5 21 6 22 7 23 8 24 9 25 10 26 11
REMARK SMILES IDX 27 12 28 13 29 14 30 15 31 16 32 17 15 18 14 19 13 20 12 21
REMARK SMILES IDX 11 22 10 23 9 24 8 25 7 26 6 27 5 28 4 29 3 30 2 31 1 32
REMARK H PARENT
REMARK Flexibility Score: inf
ROOT
ATOM      1  C   UNL     1       8.034  75.851  36.965  1.00  0.00     0.000 C 
ENDROOT
BRANCH   1   2
ATOM      2  C   UNL     1       9.525  76.105  36.673  1.00  0.00     0.000 C 
BRANCH   2   3
ATOM      3  C   UNL     1       9.892  77.575  36.385  1.00  0.00     0.000 C 
BRANCH   3   4
ATOM      4  C   UNL     1       9.015  78.613  37.106  1.00  0.00     0.000 C 
BRANCH   4   5
ATOM      5  C   UNL     1       9.804  79.450  38.126  1.00  0.00     0.000 C 
BRANCH   5   6
ATOM      6  C   UNL     1       9.429  79.124  39.583  1.00  0.00     0.000 C 
BRANCH   6   7
ATOM      7  C   UNL     1       9.985  80.109  40.634  1.00  0.00     0.000 C 
BRANCH   7   8
ATOM      8  C   UNL     1      10.910  79.483  41.693  1.00  0.00     0.000 C 
BRANCH   8   9
ATOM      9  C   UNL     1      11.597  80.486  42.638  1.00  0.00     0.000 C 
BRANCH   9  10
ATOM     10  C   UNL     1      10.822  81.810  42.817  1.00  0.00     0.000 C 
BRANCH  10  11
ATOM     11  C   UNL     1       9.943  81.815  44.078  1.00  0.00     0.000 C 
BRANCH  11  12
ATOM     12  C   UNL     1       8.458  81.970  43.713  1.00  0.00     0.000 C 
BRANCH  12  13
ATOM     13  C   UNL     1       7.565  80.935  44.415  1.00  0.00     0.006 C 
BRANCH  13  14
ATOM     14  C   UNL     1       7.703  80.974  45.943  1.00  0.00     0.053 C 
BRANCH  14  15
ATOM     15  C   UNL     1       7.214  79.693  46.543  1.00  0.00     0.041 C 
ATOM     16  O   UNL     1       5.985  79.518  46.748  1.00  0.00    -0.550 OA
ATOM     17  O   UNL     1       8.122  78.712  46.922  1.00  0.00    -0.550 OA
ENDBRANCH  14  15
ENDBRANCH  13  14
ENDBRANCH  12  13
ENDBRANCH  11  12
ENDBRANCH  10  11
ENDBRANCH   9  10
ENDBRANCH   8   9
ENDBRANCH   7   8
ENDBRANCH   6   7
ENDBRANCH   5   6
ENDBRANCH   4   5
ENDBRANCH   3   4
ENDBRANCH   2   3
ENDBRANCH   1   2
BRANCH   1  18
ATOM     18  C   UNL     1       7.619  74.367  37.008  1.00  0.00     0.000 C 
BRANCH  18  19
ATOM     19  C   UNL     1       8.741  73.364  36.678  1.00  0.00     0.000 C 
BRANCH  19  20
ATOM     20  C   UNL     1       8.870  72.249  37.729  1.00  0.00     0.000 C 
BRANCH  20  21
ATOM     21  C   UNL     1       7.709  72.241  38.740  1.00  0.00     0.000 C 
BRANCH  21  22
ATOM     22  C   UNL     1       6.924  70.916  38.828  1.00  0.00     0.000 C 
BRANCH  22  23
ATOM     23  C   UNL     1       5.394  71.048  38.702  1.00  0.00     0.000 C 
BRANCH  23  24
ATOM     24  C   UNL     1       4.898  71.757  37.428  1.00  0.00    -0.000 C 
BRANCH  24  25
ATOM     25  C   UNL     1       3.734  72.725  37.693  1.00  0.00    -0.000 C 
BRANCH  25  26
ATOM     26  C   UNL     1       4.205  74.158  37.996  1.00  0.00    -0.000 C 
BRANCH  26  27
ATOM     27  C   UNL     1       4.589  74.386  39.474  1.00  0.00    -0.000 C 
BRANCH  27  28
ATOM     28  C   UNL     1       5.468  75.638  39.659  1.00  0.00    -0.000 C 
BRANCH  28  29
ATOM     29  C   UNL     1       4.841  76.897  39.042  1.00  0.00    -0.000 C 
BRANCH  29  30
ATOM     30  C   UNL     1       5.854  78.039  38.873  1.00  0.00    -0.000 C 
BRANCH  30  31
ATOM     31  C   UNL     1       5.358  79.317  39.560  1.00  0.00    -0.003 C 
ATOM     32  C   UNL     1       5.349  79.162  41.077  1.00  0.00     0.004 C 
ENDBRANCH  30  31
ENDBRANCH  29  30
ENDBRANCH  28  29
ENDBRANCH  27  28
ENDBRANCH  26  27
ENDBRANCH  25  26
ENDBRANCH  24  25
ENDBRANCH  23  24
ENDBRANCH  22  23
ENDBRANCH  21  22
ENDBRANCH  20  21
ENDBRANCH  19  20
ENDBRANCH  18  19
ENDBRANCH   1  18
TORSDOF 28
ENDMDL
MODEL 6
REMARK VINA RESULT:    -4.939      1.296      3.066
REMARK INTER + INTRA:         -16.337
REMARK INTER:                 -12.733
REMARK INTRA:                  -3.604
REMARK UNBOUND:                -3.314
REMARK SMILES CCCCCCCCCCCCCCCCCCCCCCCCCCCCCC(=O)[O-]
REMARK SMILES IDX 16 1 17 2 18 3 19 4 20 5 21 6 22 7 23 8 24 9 25 10 26 11
REMARK SMILES IDX 27 12 28 13 29 14 30 15 31 16 32 17 15 18 14 19 13 20 12 21
REMARK SMILES IDX 11 22 10 23 9 24 8 25 7 26 6 27 5 28 4 29 3 30 2 31 1 32
REMARK H PARENT
REMARK Flexibility Score: inf
ROOT
ATOM      1  C   UNL     1       5.908  78.027  40.052  1.00  0.00     0.000 C 
ENDROOT
BRANCH   1   2
ATOM      2  C   UNL     1       4.844  77.193  39.313  1.00  0.00     0.000 C 
BRANCH   2   3
ATOM      3  C   UNL     1       5.385  75.955  38.572  1.00  0.00     0.000 C 
BRANCH   3   4
ATOM      4  C   UNL     1       6.561  75.248  39.267  1.00  0.00     0.000 C 
BRANCH   4   5
ATOM      5  C   UNL     1       6.106  74.109  40.194  1.00  0.00     0.000 C 
BRANCH   5   6
ATOM      6  C   UNL     1       5.078  73.176  39.532  1.00  0.00     0.000 C 
BRANCH   6   7
ATOM      7  C   UNL     1       5.457  71.679  39.539  1.00  0.00     0.000 C 
BRANCH   7   8
ATOM      8  C   UNL     1       5.659  71.048  38.150  1.00  0.00     0.000 C 
BRANCH   8   9
ATOM      9  C   UNL     1       5.546  72.025  36.964  1.00  0.00     0.000 C 
BRANCH   9  10
ATOM     10  C   UNL     1       6.874  72.247  36.208  1.00  0.00     0.000 C 
BRANCH  10  11
ATOM     11  C   UNL     1       7.531  73.594  36.549  1.00  0.00     0.000 C 
BRANCH  11  12
ATOM     12  C   UNL     1       9.061  73.464  36.594  1.00  0.00     0.000 C 
BRANCH  12  13
ATOM     13  C   UNL     1       9.530  72.296  37.476  1.00  0.00     0.006 C 
BRANCH  13  14
ATOM     14  C   UNL     1      10.895  71.740  37.045  1.00  0.00     0.053 C 
BRANCH  14  15
ATOM     15  C   UNL     1      11.968  72.213  37.974  1.00  0.00     0.041 C 
ATOM     16  O   UNL     1      13.030  72.709  37.515  1.00  0.00    -0.550 OA
ATOM     17  O   UNL     1      11.816  72.063  39.346  1.00  0.00    -0.550 OA
ENDBRANCH  14  15
ENDBRANCH  13  14
ENDBRANCH  12  13
ENDBRANCH  11  12
ENDBRANCH  10  11
ENDBRANCH   9  10
ENDBRANCH   8   9
ENDBRANCH   7   8
ENDBRANCH   6   7
ENDBRANCH   5   6
ENDBRANCH   4   5
ENDBRANCH   3   4
ENDBRANCH   2   3
ENDBRANCH   1   2
BRANCH   1  18
ATOM     18  C   UNL     1       6.165  79.429  39.464  1.00  0.00     0.000 C 
BRANCH  18  19
ATOM     19  C   UNL     1       6.008  79.537  37.936  1.00  0.00     0.000 C 
BRANCH  19  20
ATOM     20  C   UNL     1       7.341  79.807  37.219  1.00  0.00     0.000 C 
BRANCH  20  21
ATOM     21  C   UNL     1       8.318  78.621  37.304  1.00  0.00     0.000 C 
BRANCH  21  22
ATOM     22  C   UNL     1       9.638  78.909  38.047  1.00  0.00     0.000 C 
BRANCH  22  23
ATOM     23  C   UNL     1       9.750  80.313  38.671  1.00  0.00     0.000 C 
BRANCH  23  24
ATOM     24  C   UNL     1      10.111  80.340  40.167  1.00  0.00    -0.000 C 
BRANCH  24  25
ATOM     25  C   UNL     1      11.625  80.397  40.421  1.00  0.00    -0.000 C 
BRANCH  25  26
ATOM     26  C   UNL     1      11.997  80.124  41.888  1.00  0.00    -0.000 C 
BRANCH  26  27
ATOM     27  C   UNL     1      12.317  81.399  42.696  1.00  0.00    -0.000 C 
BRANCH  27  28
ATOM     28  C   UNL     1      11.370  81.580  43.897  1.00  0.00    -0.000 C 
BRANCH  28  29
ATOM     29  C   UNL     1      10.410  80.394  44.077  1.00  0.00    -0.000 C 
BRANCH  29  30
ATOM     30  C   UNL     1       9.184  80.751  44.931  1.00  0.00    -0.000 C 
BRANCH  30  31
ATOM     31  C   UNL     1       8.324  81.813  44.237  1.00  0.00    -0.003 C 
ATOM     32  C   UNL     1       7.862  81.341  42.863  1.00  0.00     0.004 C 
ENDBRANCH  30  31
ENDBRANCH  29  30
ENDBRANCH  28  29
ENDBRANCH  27  28
ENDBRANCH  26  27
ENDBRANCH  25  26
ENDBRANCH  24  25
ENDBRANCH  23  24
ENDBRANCH  22  23
ENDBRANCH  21  22
ENDBRANCH  20  21
ENDBRANCH  19  20
ENDBRANCH  18  19
ENDBRANCH   1  18
TORSDOF 28
ENDMDL
MODEL 7
REMARK VINA RESULT:    -4.903      1.769      3.615
REMARK INTER + INTRA:         -16.242
REMARK INTER:                 -12.530
REMARK INTRA:                  -3.711
REMARK UNBOUND:                -3.314
REMARK SMILES CCCCCCCCCCCCCCCCCCCCCCCCCCCCCC(=O)[O-]
REMARK SMILES IDX 16 1 17 2 18 3 19 4 20 5 21 6 22 7 23 8 24 9 25 10 26 11
REMARK SMILES IDX 27 12 28 13 29 14 30 15 31 16 32 17 15 18 14 19 13 20 12 21
REMARK SMILES IDX 11 22 10 23 9 24 8 25 7 26 6 27 5 28 4 29 3 30 2 31 1 32
REMARK H PARENT
REMARK Flexibility Score: inf
ROOT
ATOM      1  C   UNL     1       5.445  76.740  39.282  1.00  0.00     0.000 C 
ENDROOT
BRANCH   1   2
ATOM      2  C   UNL     1       4.159  75.943  38.987  1.00  0.00     0.000 C 
BRANCH   2   3
ATOM      3  C   UNL     1       4.340  74.414  38.925  1.00  0.00     0.000 C 
BRANCH   3   4
ATOM      4  C   UNL     1       3.643  73.729  37.737  1.00  0.00     0.000 C 
BRANCH   4   5
ATOM      5  C   UNL     1       4.587  73.506  36.543  1.00  0.00     0.000 C 
BRANCH   5   6
ATOM      6  C   UNL     1       4.795  72.017  36.217  1.00  0.00     0.000 C 
BRANCH   6   7
ATOM      7  C   UNL     1       4.098  71.035  37.184  1.00  0.00     0.000 C 
BRANCH   7   8
ATOM      8  C   UNL     1       5.046  70.194  38.057  1.00  0.00     0.000 C 
BRANCH   8   9
ATOM      9  C   UNL     1       5.841  70.986  39.113  1.00  0.00     0.000 C 
BRANCH   9  10
ATOM     10  C   UNL     1       7.367  70.979  38.881  1.00  0.00     0.000 C 
BRANCH  10  11
ATOM     11  C   UNL     1       7.909  72.356  38.464  1.00  0.00     0.000 C 
BRANCH  11  12
ATOM     12  C   UNL     1       8.394  72.338  37.006  1.00  0.00     0.000 C 
BRANCH  12  13
ATOM     13  C   UNL     1       9.844  72.825  36.858  1.00  0.00     0.006 C 
BRANCH  13  14
ATOM     14  C   UNL     1      10.869  71.699  37.053  1.00  0.00     0.053 C 
BRANCH  14  15
ATOM     15  C   UNL     1      12.022  72.181  37.876  1.00  0.00     0.041 C 
ATOM     16  O   UNL     1      12.763  73.105  37.449  1.00  0.00    -0.550 OA
ATOM     17  O   UNL     1      12.309  71.576  39.093  1.00  0.00    -0.550 OA
ENDBRANCH  14  15
ENDBRANCH  13  14
ENDBRANCH  12  13
ENDBRANCH  11  12
ENDBRANCH  10  11
ENDBRANCH   9  10
ENDBRANCH   8   9
ENDBRANCH   7   8
ENDBRANCH   6   7
ENDBRANCH   5   6
ENDBRANCH   4   5
ENDBRANCH   3   4
ENDBRANCH   2   3
ENDBRANCH   1   2
BRANCH   1  18
ATOM     18  C   UNL     1       6.745  76.105  38.749  1.00  0.00     0.000 C 
BRANCH  18  19
ATOM     19  C   UNL     1       7.062  76.405  37.271  1.00  0.00     0.000 C 
BRANCH  19  20
ATOM     20  C   UNL     1       8.558  76.273  36.945  1.00  0.00     0.000 C 
BRANCH  20  21
ATOM     21  C   UNL     1       9.259  77.635  36.788  1.00  0.00     0.000 C 
BRANCH  21  22
ATOM     22  C   UNL     1       9.692  78.306  38.107  1.00  0.00     0.000 C 
BRANCH  22  23
ATOM     23  C   UNL     1       9.669  79.847  38.102  1.00  0.00     0.000 C 
BRANCH  23  24
ATOM     24  C   UNL     1       9.269  80.503  39.436  1.00  0.00    -0.000 C 
BRANCH  24  25
ATOM     25  C   UNL     1      10.381  81.379  40.032  1.00  0.00    -0.000 C 
BRANCH  25  26
ATOM     26  C   UNL     1      11.675  80.595  40.311  1.00  0.00    -0.000 C 
BRANCH  26  27
ATOM     27  C   UNL     1      11.873  80.230  41.798  1.00  0.00    -0.000 C 
BRANCH  27  28
ATOM     28  C   UNL     1      12.370  81.427  42.630  1.00  0.00    -0.000 C 
BRANCH  28  29
ATOM     29  C   UNL     1      11.706  81.503  44.013  1.00  0.00    -0.000 C 
BRANCH  29  30
ATOM     30  C   UNL     1      10.594  80.460  44.194  1.00  0.00    -0.000 C 
BRANCH  30  31
ATOM     31  C   UNL     1       9.255  81.136  44.508  1.00  0.00    -0.003 C 
ATOM     32  C   UNL     1       8.608  81.696  43.246  1.00  0.00     0.004 C 
ENDBRANCH  30  31
ENDBRANCH  29  30
ENDBRANCH  28  29
ENDBRANCH  27  28
ENDBRANCH  26  27
ENDBRANCH  25  26
ENDBRANCH  24  25
ENDBRANCH  23  24
ENDBRANCH  22  23
ENDBRANCH  21  22
ENDBRANCH  20  21
ENDBRANCH  19  20
ENDBRANCH  18  19
ENDBRANCH   1  18
TORSDOF 28
ENDMDL
MODEL 8
REMARK VINA RESULT:    -4.896      2.323      2.857
REMARK INTER + INTRA:         -16.225
REMARK INTER:                 -13.348
REMARK INTRA:                  -2.877
REMARK UNBOUND:                -3.314
REMARK SMILES CCCCCCCCCCCCCCCCCCCCCCCCCCCCCC(=O)[O-]
REMARK SMILES IDX 16 1 17 2 18 3 19 4 20 5 21 6 22 7 23 8 24 9 25 10 26 11
REMARK SMILES IDX 27 12 28 13 29 14 30 15 31 16 32 17 15 18 14 19 13 20 12 21
REMARK SMILES IDX 11 22 10 23 9 24 8 25 7 26 6 27 5 28 4 29 3 30 2 31 1 32
REMARK H PARENT
REMARK Flexibility Score: inf
ROOT
ATOM      1  C   UNL     1       8.337  78.682  36.267  1.00  0.00     0.000 C 
ENDROOT
BRANCH   1   2
ATOM      2  C   UNL     1       7.170  79.667  36.478  1.00  0.00     0.000 C 
BRANCH   2   3
ATOM      3  C   UNL     1       5.964  79.093  37.247  1.00  0.00     0.000 C 
BRANCH   3   4
ATOM      4  C   UNL     1       5.703  79.742  38.617  1.00  0.00     0.000 C 
BRANCH   4   5
ATOM      5  C   UNL     1       5.849  78.748  39.782  1.00  0.00     0.000 C 
BRANCH   5   6
ATOM      6  C   UNL     1       4.987  77.487  39.602  1.00  0.00     0.000 C 
BRANCH   6   7
ATOM      7  C   UNL     1       5.782  76.180  39.394  1.00  0.00     0.000 C 
BRANCH   7   8
ATOM      8  C   UNL     1       5.464  75.420  38.094  1.00  0.00     0.000 C 
BRANCH   8   9
ATOM      9  C   UNL     1       5.361  73.889  38.238  1.00  0.00     0.000 C 
BRANCH   9  10
ATOM     10  C   UNL     1       6.016  73.336  39.522  1.00  0.00     0.000 C 
BRANCH  10  11
ATOM     11  C   UNL     1       6.691  71.973  39.303  1.00  0.00     0.000 C 
BRANCH  11  12
ATOM     12  C   UNL     1       5.643  70.863  39.120  1.00  0.00     0.000 C 
BRANCH  12  13
ATOM     13  C   UNL     1       6.056  69.829  38.061  1.00  0.00     0.006 C 
BRANCH  13  14
ATOM     14  C   UNL     1       6.370  68.454  38.669  1.00  0.00     0.053 C 
BRANCH  14  15
ATOM     15  C   UNL     1       5.163  67.572  38.615  1.00  0.00     0.041 C 
ATOM     16  O   UNL     1       4.304  67.617  39.533  1.00  0.00    -0.550 OA
ATOM     17  O   UNL     1       5.011  66.665  37.574  1.00  0.00    -0.550 OA
ENDBRANCH  14  15
ENDBRANCH  13  14
ENDBRANCH  12  13
ENDBRANCH  11  12
ENDBRANCH  10  11
ENDBRANCH   9  10
ENDBRANCH   8   9
ENDBRANCH   7   8
ENDBRANCH   6   7
ENDBRANCH   5   6
ENDBRANCH   4   5
ENDBRANCH   3   4
ENDBRANCH   2   3
ENDBRANCH   1   2
BRANCH   1  18
ATOM     18  C   UNL     1       8.583  77.700  37.430  1.00  0.00     0.000 C 
BRANCH  18  19
ATOM     19  C   UNL     1       9.322  78.294  38.643  1.00  0.00     0.000 C 
BRANCH  19  20
ATOM     20  C   UNL     1      10.061  79.600  38.309  1.00  0.00     0.000 C 
BRANCH  20  21
ATOM     21  C   UNL     1       9.538  80.806  39.110  1.00  0.00     0.000 C 
BRANCH  21  22
ATOM     22  C   UNL     1      10.003  80.869  40.580  1.00  0.00     0.000 C 
BRANCH  22  23
ATOM     23  C   UNL     1      11.491  80.547  40.814  1.00  0.00     0.000 C 
BRANCH  23  24
ATOM     24  C   UNL     1      11.885  80.293  42.280  1.00  0.00    -0.000 C 
BRANCH  24  25
ATOM     25  C   UNL     1      12.171  81.586  43.059  1.00  0.00    -0.000 C 
BRANCH  25  26
ATOM     26  C   UNL     1      11.491  81.616  44.439  1.00  0.00    -0.000 C 
BRANCH  26  27
ATOM     27  C   UNL     1      10.229  80.731  44.528  1.00  0.00    -0.000 C 
BRANCH  27  28
ATOM     28  C   UNL     1       8.932  81.554  44.405  1.00  0.00    -0.000 C 
BRANCH  28  29
ATOM     29  C   UNL     1       7.687  80.763  44.834  1.00  0.00    -0.000 C 
BRANCH  29  30
ATOM     30  C   UNL     1       7.397  80.887  46.337  1.00  0.00    -0.000 C 
BRANCH  30  31
ATOM     31  C   UNL     1       7.126  79.512  46.958  1.00  0.00    -0.003 C 
ATOM     32  C   UNL     1       5.737  79.002  46.588  1.00  0.00     0.004 C 
ENDBRANCH  30  31
ENDBRANCH  29  30
ENDBRANCH  28  29
ENDBRANCH  27  28
ENDBRANCH  26  27
ENDBRANCH  25  26
ENDBRANCH  24  25
ENDBRANCH  23  24
ENDBRANCH  22  23
ENDBRANCH  21  22
ENDBRANCH  20  21
ENDBRANCH  19  20
ENDBRANCH  18  19
ENDBRANCH   1  18
TORSDOF 28
ENDMDL
MODEL 9
REMARK VINA RESULT:    -4.879      3.272      9.359
REMARK INTER + INTRA:         -16.179
REMARK INTER:                 -12.703
REMARK INTRA:                  -3.475
REMARK UNBOUND:                -3.314
REMARK SMILES CCCCCCCCCCCCCCCCCCCCCCCCCCCCCC(=O)[O-]
REMARK SMILES IDX 16 1 17 2 18 3 19 4 20 5 21 6 22 7 23 8 24 9 25 10 26 11
REMARK SMILES IDX 27 12 28 13 29 14 30 15 31 16 32 17 15 18 14 19 13 20 12 21
REMARK SMILES IDX 11 22 10 23 9 24 8 25 7 26 6 27 5 28 4 29 3 30 2 31 1 32
REMARK H PARENT
REMARK Flexibility Score: inf
ROOT
ATOM      1  C   UNL     1       5.182  78.529  39.842  1.00  0.00     0.000 C 
ENDROOT
BRANCH   1   2
ATOM      2  C   UNL     1       6.197  79.452  39.140  1.00  0.00     0.000 C 
BRANCH   2   3
ATOM      3  C   UNL     1       5.637  80.249  37.946  1.00  0.00     0.000 C 
BRANCH   3   4
ATOM      4  C   UNL     1       6.318  79.959  36.598  1.00  0.00     0.000 C 
BRANCH   4   5
ATOM      5  C   UNL     1       6.967  78.566  36.548  1.00  0.00     0.000 C 
BRANCH   5   6
ATOM      6  C   UNL     1       8.472  78.620  36.232  1.00  0.00     0.000 C 
BRANCH   6   7
ATOM      7  C   UNL     1       9.377  77.885  37.244  1.00  0.00     0.000 C 
BRANCH   7   8
ATOM      8  C   UNL     1       9.655  78.652  38.550  1.00  0.00     0.000 C 
BRANCH   8   9
ATOM      9  C   UNL     1       9.897  80.164  38.383  1.00  0.00     0.000 C 
BRANCH   9  10
ATOM     10  C   UNL     1      11.183  80.672  39.071  1.00  0.00     0.000 C 
BRANCH  10  11
ATOM     11  C   UNL     1      10.917  81.247  40.471  1.00  0.00     0.000 C 
BRANCH  11  12
ATOM     12  C   UNL     1      11.630  80.418  41.551  1.00  0.00     0.000 C 
BRANCH  12  13
ATOM     13  C   UNL     1      12.076  81.268  42.751  1.00  0.00     0.006 C 
BRANCH  13  14
ATOM     14  C   UNL     1      11.312  80.924  44.037  1.00  0.00     0.053 C 
BRANCH  14  15
ATOM     15  C   UNL     1       9.973  81.592  44.042  1.00  0.00     0.041 C 
ATOM     16  O   UNL     1       8.968  80.993  44.505  1.00  0.00    -0.550 OA
ATOM     17  O   UNL     1       9.826  82.859  43.491  1.00  0.00    -0.550 OA
ENDBRANCH  14  15
ENDBRANCH  13  14
ENDBRANCH  12  13
ENDBRANCH  11  12
ENDBRANCH  10  11
ENDBRANCH   9  10
ENDBRANCH   8   9
ENDBRANCH   7   8
ENDBRANCH   6   7
ENDBRANCH   5   6
ENDBRANCH   4   5
ENDBRANCH   3   4
ENDBRANCH   2   3
ENDBRANCH   1   2
BRANCH   1  18
ATOM     18  C   UNL     1       5.158  77.075  39.331  1.00  0.00     0.000 C 
BRANCH  18  19
ATOM     19  C   UNL     1       6.506  76.334  39.400  1.00  0.00     0.000 C 
BRANCH  19  20
ATOM     20  C   UNL     1       6.659  75.273  38.298  1.00  0.00     0.000 C 
BRANCH  20  21
ATOM     21  C   UNL     1       5.324  74.918  37.619  1.00  0.00     0.000 C 
BRANCH  21  22
ATOM     22  C   UNL     1       4.418  73.956  38.414  1.00  0.00     0.000 C 
BRANCH  22  23
ATOM     23  C   UNL     1       3.865  72.760  37.616  1.00  0.00     0.000 C 
BRANCH  23  24
ATOM     24  C   UNL     1       4.447  71.387  38.001  1.00  0.00    -0.000 C 
BRANCH  24  25
ATOM     25  C   UNL     1       5.602  71.485  39.010  1.00  0.00    -0.000 C 
BRANCH  25  26
ATOM     26  C   UNL     1       6.977  71.231  38.370  1.00  0.00    -0.000 C 
BRANCH  26  27
ATOM     27  C   UNL     1       7.066  71.666  36.891  1.00  0.00    -0.000 C 
BRANCH  27  28
ATOM     28  C   UNL     1       8.392  72.382  36.575  1.00  0.00    -0.000 C 
BRANCH  28  29
ATOM     29  C   UNL     1       9.526  71.977  37.529  1.00  0.00    -0.000 C 
BRANCH  29  30
ATOM     30  C   UNL     1      10.916  72.327  36.978  1.00  0.00    -0.000 C 
BRANCH  30  31
ATOM     31  C   UNL     1      12.003  71.495  37.666  1.00  0.00    -0.003 C 
ATOM     32  C   UNL     1      12.081  71.809  39.156  1.00  0.00     0.004 C 
ENDBRANCH  30  31
ENDBRANCH  29  30
ENDBRANCH  28  29
ENDBRANCH  27  28
ENDBRANCH  26  27
ENDBRANCH  25  26
ENDBRANCH  24  25
ENDBRANCH  23  24
ENDBRANCH  22  23
ENDBRANCH  21  22
ENDBRANCH  20  21
ENDBRANCH  19  20
ENDBRANCH  18  19
ENDBRANCH   1  18
TORSDOF 28
ENDMDL
