MODEL 1
REMARK VINA RESULT:    -3.193      0.000      0.000
REMARK INTER + INTRA:         -11.735
REMARK INTER:                  -7.299
REMARK INTRA:                  -4.436
REMARK UNBOUND:                -4.436
REMARK SMILES CCCCCCCCCCCCCCCCCCCCCCCC(=O)[O-]
REMARK SMILES IDX 13 1 14 2 15 3 16 4 17 5 18 6 19 7 20 8 21 9 22 10 23 11
REMARK SMILES IDX 24 12 25 13 26 14 12 15 11 16 10 17 9 18 8 19 7 20 6 21 5 22
REMARK SMILES IDX 4 23 3 24 2 25 1 26
REMARK H PARENT
REMARK Flexibility Score: inf
ROOT
ATOM      1  C   UNL     1      -6.971 -64.631  -1.072  1.00  0.00     0.000 C 
ENDROOT
BRANCH   1   2
ATOM      2  C   UNL     1      -6.083 -65.888  -1.022  1.00  0.00     0.000 C 
BRANCH   2   3
ATOM      3  C   UNL     1      -4.715 -65.623  -0.358  1.00  0.00     0.000 C 
BRANCH   3   4
ATOM      4  C   UNL     1      -4.609 -64.251   0.330  1.00  0.00     0.000 C 
BRANCH   4   5
ATOM      5  C   UNL     1      -3.314 -63.499  -0.016  1.00  0.00     0.000 C 
BRANCH   5   6
ATOM      6  C   UNL     1      -3.580 -62.199  -0.802  1.00  0.00     0.000 C 
BRANCH   6   7
ATOM      7  C   UNL     1      -4.300 -62.414  -2.150  1.00  0.00     0.000 C 
BRANCH   7   8
ATOM      8  C   UNL     1      -3.351 -62.609  -3.352  1.00  0.00     0.000 C 
BRANCH   8   9
ATOM      9  C   UNL     1      -3.111 -64.088  -3.711  1.00  0.00     0.000 C 
BRANCH   9  10
ATOM     10  C   UNL     1      -4.413 -64.816  -4.076  1.00  0.00     0.006 C 
BRANCH  10  11
ATOM     11  C   UNL     1      -4.196 -66.333  -4.131  1.00  0.00     0.053 C 
BRANCH  11  12
ATOM     12  C   UNL     1      -4.075 -66.811  -5.546  1.00  0.00     0.041 C 
ATOM     13  O   UNL     1      -3.098 -67.523  -5.893  1.00  0.00    -0.550 OA
ATOM     14  O   UNL     1      -5.011 -66.424  -6.499  1.00  0.00    -0.550 OA
ENDBRANCH  11  12
ENDBRANCH  10  11
ENDBRANCH   9  10
ENDBRANCH   8   9
ENDBRANCH   7   8
ENDBRANCH   6   7
ENDBRANCH   5   6
ENDBRANCH   4   5
ENDBRANCH   3   4
ENDBRANCH   2   3
ENDBRANCH   1   2
BRANCH   1  15
ATOM     15  C   UNL     1      -8.464 -64.969  -1.210  1.00  0.00     0.000 C 
BRANCH  15  16
ATOM     16  C   UNL     1      -8.876 -66.201  -0.390  1.00  0.00     0.000 C 
BRANCH  16  17
ATOM     17  C   UNL     1      -9.199 -65.808   1.057  1.00  0.00     0.000 C 
BRANCH  17  18
ATOM     18  C   UNL     1      -8.215 -66.458   2.041  1.00  0.00    -0.000 C 
BRANCH  18  19
ATOM     19  C   UNL     1      -7.180 -65.460   2.596  1.00  0.00    -0.000 C 
BRANCH  19  20
ATOM     20  C   UNL     1      -7.774 -64.259   3.362  1.00  0.00    -0.000 C 
BRANCH  20  21
ATOM     21  C   UNL     1      -7.249 -62.880   2.922  1.00  0.00    -0.000 C 
BRANCH  21  22
ATOM     22  C   UNL     1      -7.883 -62.392   1.612  1.00  0.00    -0.000 C 
BRANCH  22  23
ATOM     23  C   UNL     1      -6.910 -61.499   0.829  1.00  0.00    -0.000 C 
BRANCH  23  24
ATOM     24  C   UNL     1      -6.935 -60.032   1.295  1.00  0.00    -0.000 C 
BRANCH  24  25
ATOM     25  C   UNL     1      -5.555 -59.433   1.622  1.00  0.00    -0.003 C 
ATOM     26  C   UNL     1      -4.591 -60.449   2.232  1.00  0.00     0.004 C 
ENDBRANCH  24  25
ENDBRANCH  23  24
ENDBRANCH  22  23
ENDBRANCH  21  22
ENDBRANCH  20  21
ENDBRANCH  19  20
ENDBRANCH  18  19
ENDBRANCH  17  18
ENDBRANCH  16  17
ENDBRANCH  15  16
ENDBRANCH   1  15
TORSDOF 22
ENDMDL
MODEL 2
REMARK VINA RESULT:    -3.127      2.596      5.525
REMARK INTER + INTRA:         -11.584
REMARK INTER:                  -7.799
REMARK INTRA:                  -3.785
REMARK UNBOUND:                -4.436
REMARK SMILES CCCCCCCCCCCCCCCCCCCCCCCC(=O)[O-]
REMARK SMILES IDX 13 1 14 2 15 3 16 4 17 5 18 6 19 7 20 8 21 9 22 10 23 11
REMARK SMILES IDX 24 12 25 13 26 14 12 15 11 16 10 17 9 18 8 19 7 20 6 21 5 22
REMARK SMILES IDX 4 23 3 24 2 25 1 26
REMARK H PARENT
REMARK Flexibility Score: inf
ROOT
ATOM      1  C   UNL     1      -2.523 -63.618  -3.783  1.00  0.00     0.000 C 
ENDROOT
BRANCH   1   2
ATOM      2  C   UNL     1      -4.022 -63.502  -4.118  1.00  0.00     0.000 C 
BRANCH   2   3
ATOM      3  C   UNL     1      -4.726 -64.874  -4.176  1.00  0.00     0.000 C 
BRANCH   3   4
ATOM      4  C   UNL     1      -3.762 -66.073  -4.160  1.00  0.00     0.000 C 
BRANCH   4   5
ATOM      5  C   UNL     1      -4.358 -67.336  -4.803  1.00  0.00     0.000 C 
BRANCH   5   6
ATOM      6  C   UNL     1      -3.889 -67.534  -6.259  1.00  0.00     0.000 C 
BRANCH   6   7
ATOM      7  C   UNL     1      -4.566 -66.588  -7.272  1.00  0.00     0.000 C 
BRANCH   7   8
ATOM      8  C   UNL     1      -3.580 -65.824  -8.182  1.00  0.00     0.000 C 
BRANCH   8   9
ATOM      9  C   UNL     1      -3.002 -64.553  -7.532  1.00  0.00     0.000 C 
BRANCH   9  10
ATOM     10  C   UNL     1      -1.495 -64.674  -7.257  1.00  0.00     0.006 C 
BRANCH  10  11
ATOM     11  C   UNL     1      -0.858 -63.291  -7.080  1.00  0.00     0.053 C 
BRANCH  11  12
ATOM     12  C   UNL     1       0.638 -63.383  -7.062  1.00  0.00     0.041 C 
ATOM     13  O   UNL     1       1.207 -64.302  -6.417  1.00  0.00    -0.550 OA
ATOM     14  O   UNL     1       1.408 -62.424  -7.709  1.00  0.00    -0.550 OA
ENDBRANCH  11  12
ENDBRANCH  10  11
ENDBRANCH   9  10
ENDBRANCH   8   9
ENDBRANCH   7   8
ENDBRANCH   6   7
ENDBRANCH   5   6
ENDBRANCH   4   5
ENDBRANCH   3   4
ENDBRANCH   2   3
ENDBRANCH   1   2
BRANCH   1  15
ATOM     15  C   UNL     1      -2.144 -62.860  -2.502  1.00  0.00     0.000 C 
BRANCH  15  16
ATOM     16  C   UNL     1      -2.447 -63.658  -1.225  1.00  0.00     0.000 C 
BRANCH  16  17
ATOM     17  C   UNL     1      -3.633 -63.046  -0.469  1.00  0.00     0.000 C 
BRANCH  17  18
ATOM     18  C   UNL     1      -4.486 -64.134   0.200  1.00  0.00    -0.000 C 
BRANCH  18  19
ATOM     19  C   UNL     1      -4.332 -65.511  -0.475  1.00  0.00    -0.000 C 
BRANCH  19  20
ATOM     20  C   UNL     1      -5.649 -66.160  -0.949  1.00  0.00    -0.000 C 
BRANCH  20  21
ATOM     21  C   UNL     1      -6.805 -65.177  -1.208  1.00  0.00    -0.000 C 
BRANCH  21  22
ATOM     22  C   UNL     1      -8.164 -65.722  -0.746  1.00  0.00    -0.000 C 
BRANCH  22  23
ATOM     23  C   UNL     1      -8.887 -64.707   0.152  1.00  0.00    -0.000 C 
BRANCH  23  24
ATOM     24  C   UNL     1      -8.078 -64.333   1.407  1.00  0.00    -0.000 C 
BRANCH  24  25
ATOM     25  C   UNL     1      -7.674 -65.523   2.296  1.00  0.00    -0.003 C 
ATOM     26  C   UNL     1      -6.486 -65.213   3.206  1.00  0.00     0.004 C 
ENDBRANCH  24  25
ENDBRANCH  23  24
ENDBRANCH  22  23
ENDBRANCH  21  22
ENDBRANCH  20  21
ENDBRANCH  19  20
ENDBRANCH  18  19
ENDBRANCH  17  18
ENDBRANCH  16  17
ENDBRANCH  15  16
ENDBRANCH   1  15
TORSDOF 22
ENDMDL
MODEL 3
REMARK VINA RESULT:    -3.126      1.245      3.673
REMARK INTER + INTRA:         -11.582
REMARK INTER:                  -7.864
REMARK INTRA:                  -3.718
REMARK UNBOUND:                -4.436
REMARK SMILES CCCCCCCCCCCCCCCCCCCCCCCC(=O)[O-]
REMARK SMILES IDX 13 1 14 2 15 3 16 4 17 5 18 6 19 7 20 8 21 9 22 10 23 11
REMARK SMILES IDX 24 12 25 13 26 14 12 15 11 16 10 17 9 18 8 19 7 20 6 21 5 22
REMARK SMILES IDX 4 23 3 24 2 25 1 26
REMARK H PARENT
REMARK Flexibility Score: inf
ROOT
ATOM      1  C   UNL     1      -3.655 -63.388   0.362  1.00  0.00     0.000 C 
ENDROOT
BRANCH   1   2
ATOM      2  C   UNL     1      -4.071 -61.905   0.377  1.00  0.00     0.000 C 
BRANCH   2   3
ATOM      3  C   UNL     1      -3.888 -61.223  -0.996  1.00  0.00     0.000 C 
BRANCH   3   4
ATOM      4  C   UNL     1      -4.340 -62.084  -2.188  1.00  0.00     0.000 C 
BRANCH   4   5
ATOM      5  C   UNL     1      -3.398 -61.983  -3.399  1.00  0.00     0.000 C 
BRANCH   5   6
ATOM      6  C   UNL     1      -2.474 -63.211  -3.530  1.00  0.00     0.000 C 
BRANCH   6   7
ATOM      7  C   UNL     1      -3.117 -64.536  -3.074  1.00  0.00     0.000 C 
BRANCH   7   8
ATOM      8  C   UNL     1      -3.818 -65.322  -4.204  1.00  0.00     0.000 C 
BRANCH   8   9
ATOM      9  C   UNL     1      -4.058 -66.805  -3.864  1.00  0.00     0.000 C 
BRANCH   9  10
ATOM     10  C   UNL     1      -4.111 -67.689  -5.119  1.00  0.00     0.006 C 
BRANCH  10  11
ATOM     11  C   UNL     1      -3.685 -66.899  -6.363  1.00  0.00     0.053 C 
BRANCH  11  12
ATOM     12  C   UNL     1      -4.712 -67.006  -7.448  1.00  0.00     0.041 C 
ATOM     13  O   UNL     1      -4.754 -68.028  -8.182  1.00  0.00    -0.550 OA
ATOM     14  O   UNL     1      -5.589 -65.955  -7.691  1.00  0.00    -0.550 OA
ENDBRANCH  11  12
ENDBRANCH  10  11
ENDBRANCH   9  10
ENDBRANCH   8   9
ENDBRANCH   7   8
ENDBRANCH   6   7
ENDBRANCH   5   6
ENDBRANCH   4   5
ENDBRANCH   3   4
ENDBRANCH   2   3
ENDBRANCH   1   2
BRANCH   1  15
ATOM     15  C   UNL     1      -4.847 -64.337   0.551  1.00  0.00     0.000 C 
BRANCH  15  16
ATOM     16  C   UNL     1      -4.726 -65.623  -0.282  1.00  0.00     0.000 C 
BRANCH  16  17
ATOM     17  C   UNL     1      -6.059 -65.960  -0.959  1.00  0.00     0.000 C 
BRANCH  17  18
ATOM     18  C   UNL     1      -6.832 -64.685  -1.330  1.00  0.00    -0.000 C 
BRANCH  18  19
ATOM     19  C   UNL     1      -8.358 -64.856  -1.205  1.00  0.00    -0.000 C 
BRANCH  19  20
ATOM     20  C   UNL     1      -8.815 -66.091  -0.402  1.00  0.00    -0.000 C 
BRANCH  20  21
ATOM     21  C   UNL     1      -9.419 -65.785   0.980  1.00  0.00    -0.000 C 
BRANCH  21  22
ATOM     22  C   UNL     1      -8.577 -66.346   2.135  1.00  0.00    -0.000 C 
BRANCH  22  23
ATOM     23  C   UNL     1      -7.389 -65.425   2.447  1.00  0.00    -0.000 C 
BRANCH  23  24
ATOM     24  C   UNL     1      -7.743 -64.309   3.447  1.00  0.00    -0.000 C 
BRANCH  24  25
ATOM     25  C   UNL     1      -7.323 -62.893   3.014  1.00  0.00    -0.003 C 
ATOM     26  C   UNL     1      -7.821 -62.523   1.617  1.00  0.00     0.004 C 
ENDBRANCH  24  25
ENDBRANCH  23  24
ENDBRANCH  22  23
ENDBRANCH  21  22
ENDBRANCH  20  21
ENDBRANCH  19  20
ENDBRANCH  18  19
ENDBRANCH  17  18
ENDBRANCH  16  17
ENDBRANCH  15  16
ENDBRANCH   1  15
TORSDOF 22
ENDMDL
MODEL 4
REMARK VINA RESULT:    -3.103      3.402      6.925
REMARK INTER + INTRA:         -11.529
REMARK INTER:                  -8.836
REMARK INTRA:                  -2.693
REMARK UNBOUND:                -4.436
REMARK SMILES CCCCCCCCCCCCCCCCCCCCCCCC(=O)[O-]
REMARK SMILES IDX 13 1 14 2 15 3 16 4 17 5 18 6 19 7 20 8 21 9 22 10 23 11
REMARK SMILES IDX 24 12 25 13 26 14 12 15 11 16 10 17 9 18 8 19 7 20 6 21 5 22
REMARK SMILES IDX 4 23 3 24 2 25 1 26
REMARK H PARENT
REMARK Flexibility Score: inf
ROOT
ATOM      1  C   UNL     1      -4.635 -67.077  -7.448  1.00  0.00     0.000 C 
ENDROOT
BRANCH   1   2
ATOM      2  C   UNL     1      -5.322 -67.852  -8.588  1.00  0.00     0.000 C 
BRANCH   2   3
ATOM      3  C   UNL     1      -6.101 -66.928  -9.549  1.00  0.00     0.000 C 
BRANCH   3   4
ATOM      4  C   UNL     1      -7.460 -66.459  -9.000  1.00  0.00     0.000 C 
BRANCH   4   5
ATOM      5  C   UNL     1      -7.616 -64.929  -8.999  1.00  0.00     0.000 C 
BRANCH   5   6
ATOM      6  C   UNL     1      -6.802 -64.254  -7.877  1.00  0.00     0.000 C 
BRANCH   6   7
ATOM      7  C   UNL     1      -5.739 -63.256  -8.382  1.00  0.00     0.000 C 
BRANCH   7   8
ATOM      8  C   UNL     1      -4.283 -63.681  -8.095  1.00  0.00     0.000 C 
BRANCH   8   9
ATOM      9  C   UNL     1      -3.510 -64.113  -9.356  1.00  0.00     0.000 C 
BRANCH   9  10
ATOM     10  C   UNL     1      -2.111 -64.653  -9.024  1.00  0.00     0.006 C 
BRANCH  10  11
ATOM     11  C   UNL     1      -1.791 -64.466  -7.536  1.00  0.00     0.053 C 
BRANCH  11  12
ATOM     12  C   UNL     1      -0.341 -64.143  -7.331  1.00  0.00     0.041 C 
ATOM     13  O   UNL     1       0.514 -65.065  -7.303  1.00  0.00    -0.550 OA
ATOM     14  O   UNL     1       0.062 -62.830  -7.116  1.00  0.00    -0.550 OA
ENDBRANCH  11  12
ENDBRANCH  10  11
ENDBRANCH   9  10
ENDBRANCH   8   9
ENDBRANCH   7   8
ENDBRANCH   6   7
ENDBRANCH   5   6
ENDBRANCH   4   5
ENDBRANCH   3   4
ENDBRANCH   2   3
ENDBRANCH   1   2
BRANCH   1  15
ATOM     15  C   UNL     1      -4.110 -68.002  -6.340  1.00  0.00     0.000 C 
BRANCH  15  16
ATOM     16  C   UNL     1      -3.875 -67.268  -5.011  1.00  0.00     0.000 C 
BRANCH  16  17
ATOM     17  C   UNL     1      -4.321 -65.804  -5.111  1.00  0.00     0.000 C 
BRANCH  17  18
ATOM     18  C   UNL     1      -4.497 -65.181  -3.719  1.00  0.00    -0.000 C 
BRANCH  18  19
ATOM     19  C   UNL     1      -4.274 -66.195  -2.580  1.00  0.00    -0.000 C 
BRANCH  19  20
ATOM     20  C   UNL     1      -5.418 -66.284  -1.548  1.00  0.00    -0.000 C 
BRANCH  20  21
ATOM     21  C   UNL     1      -5.561 -65.061  -0.625  1.00  0.00    -0.000 C 
BRANCH  21  22
ATOM     22  C   UNL     1      -6.214 -65.406   0.721  1.00  0.00    -0.000 C 
BRANCH  22  23
ATOM     23  C   UNL     1      -7.737 -65.214   0.659  1.00  0.00    -0.000 C 
BRANCH  23  24
ATOM     24  C   UNL     1      -8.506 -66.546   0.591  1.00  0.00    -0.000 C 
BRANCH  24  25
ATOM     25  C   UNL     1      -8.853 -67.021  -0.832  1.00  0.00    -0.003 C 
ATOM     26  C   UNL     1      -9.401 -68.448  -0.869  1.00  0.00     0.004 C 
ENDBRANCH  24  25
ENDBRANCH  23  24
ENDBRANCH  22  23
ENDBRANCH  21  22
ENDBRANCH  20  21
ENDBRANCH  19  20
ENDBRANCH  18  19
ENDBRANCH  17  18
ENDBRANCH  16  17
ENDBRANCH  15  16
ENDBRANCH   1  15
TORSDOF 22
ENDMDL
MODEL 5
REMARK VINA RESULT:    -3.081      3.195      7.760
REMARK INTER + INTRA:         -11.480
REMARK INTER:                  -7.598
REMARK INTRA:                  -3.881
REMARK UNBOUND:                -4.436
REMARK SMILES CCCCCCCCCCCCCCCCCCCCCCCC(=O)[O-]
REMARK SMILES IDX 13 1 14 2 15 3 16 4 17 5 18 6 19 7 20 8 21 9 22 10 23 11
REMARK SMILES IDX 24 12 25 13 26 14 12 15 11 16 10 17 9 18 8 19 7 20 6 21 5 22
REMARK SMILES IDX 4 23 3 24 2 25 1 26
REMARK H PARENT
REMARK Flexibility Score: inf
ROOT
ATOM      1  C   UNL     1      -4.806 -62.661   0.337  1.00  0.00     0.000 C 
ENDROOT
BRANCH   1   2
ATOM      2  C   UNL     1      -3.390 -63.170   0.011  1.00  0.00     0.000 C 
BRANCH   2   3
ATOM      3  C   UNL     1      -3.389 -64.615  -0.533  1.00  0.00     0.000 C 
BRANCH   3   4
ATOM      4  C   UNL     1      -4.662 -65.411  -0.200  1.00  0.00     0.000 C 
BRANCH   4   5
ATOM      5  C   UNL     1      -5.125 -66.322  -1.349  1.00  0.00     0.000 C 
BRANCH   5   6
ATOM      6  C   UNL     1      -6.599 -66.750  -1.205  1.00  0.00     0.000 C 
BRANCH   6   7
ATOM      7  C   UNL     1      -7.432 -65.838  -0.281  1.00  0.00     0.000 C 
BRANCH   7   8
ATOM      8  C   UNL     1      -8.578 -66.563   0.459  1.00  0.00     0.000 C 
BRANCH   8   9
ATOM      9  C   UNL     1      -8.474 -66.470   1.993  1.00  0.00     0.000 C 
BRANCH   9  10
ATOM     10  C   UNL     1      -7.249 -65.662   2.445  1.00  0.00     0.006 C 
BRANCH  10  11
ATOM     11  C   UNL     1      -7.642 -64.611   3.491  1.00  0.00     0.053 C 
BRANCH  11  12
ATOM     12  C   UNL     1      -7.318 -63.228   3.015  1.00  0.00     0.041 C 
ATOM     13  O   UNL     1      -6.444 -62.543   3.606  1.00  0.00    -0.550 OA
ATOM     14  O   UNL     1      -8.020 -62.669   1.953  1.00  0.00    -0.550 OA
ENDBRANCH  11  12
ENDBRANCH  10  11
ENDBRANCH   9  10
ENDBRANCH   8   9
ENDBRANCH   7   8
ENDBRANCH   6   7
ENDBRANCH   5   6
ENDBRANCH   4   5
ENDBRANCH   3   4
ENDBRANCH   2   3
ENDBRANCH   1   2
BRANCH   1  15
ATOM     15  C   UNL     1      -5.400 -61.805  -0.792  1.00  0.00     0.000 C 
BRANCH  15  16
ATOM     16  C   UNL     1      -6.779 -62.299  -1.254  1.00  0.00     0.000 C 
BRANCH  16  17
ATOM     17  C   UNL     1      -6.658 -63.124  -2.541  1.00  0.00     0.000 C 
BRANCH  17  18
ATOM     18  C   UNL     1      -5.278 -62.942  -3.189  1.00  0.00    -0.000 C 
BRANCH  18  19
ATOM     19  C   UNL     1      -4.886 -64.123  -4.098  1.00  0.00    -0.000 C 
BRANCH  19  20
ATOM     20  C   UNL     1      -3.401 -64.165  -4.516  1.00  0.00    -0.000 C 
BRANCH  20  21
ATOM     21  C   UNL     1      -3.136 -63.913  -6.011  1.00  0.00    -0.000 C 
BRANCH  21  22
ATOM     22  C   UNL     1      -2.661 -65.172  -6.750  1.00  0.00    -0.000 C 
BRANCH  22  23
ATOM     23  C   UNL     1      -3.767 -65.725  -7.662  1.00  0.00    -0.000 C 
BRANCH  23  24
ATOM     24  C   UNL     1      -4.779 -66.606  -6.909  1.00  0.00    -0.000 C 
BRANCH  24  25
ATOM     25  C   UNL     1      -4.171 -67.827  -6.195  1.00  0.00    -0.003 C 
ATOM     26  C   UNL     1      -4.366 -67.792  -4.679  1.00  0.00     0.004 C 
ENDBRANCH  24  25
ENDBRANCH  23  24
ENDBRANCH  22  23
ENDBRANCH  21  22
ENDBRANCH  20  21
ENDBRANCH  19  20
ENDBRANCH  18  19
ENDBRANCH  17  18
ENDBRANCH  16  17
ENDBRANCH  15  16
ENDBRANCH   1  15
TORSDOF 22
ENDMDL
MODEL 6
REMARK VINA RESULT:    -3.076      4.791      7.658
REMARK INTER + INTRA:         -11.467
REMARK INTER:                  -8.331
REMARK INTRA:                  -3.136
REMARK UNBOUND:                -4.436
REMARK SMILES CCCCCCCCCCCCCCCCCCCCCCCC(=O)[O-]
REMARK SMILES IDX 13 1 14 2 15 3 16 4 17 5 18 6 19 7 20 8 21 9 22 10 23 11
REMARK SMILES IDX 24 12 25 13 26 14 12 15 11 16 10 17 9 18 8 19 7 20 6 21 5 22
REMARK SMILES IDX 4 23 3 24 2 25 1 26
REMARK H PARENT
REMARK Flexibility Score: inf
ROOT
ATOM      1  C   UNL     1      -7.306 -66.511  -0.882  1.00  0.00     0.000 C 
ENDROOT
BRANCH   1   2
ATOM      2  C   UNL     1      -8.700 -65.861  -0.807  1.00  0.00     0.000 C 
BRANCH   2   3
ATOM      3  C   UNL     1      -9.196 -65.684   0.644  1.00  0.00     0.000 C 
BRANCH   3   4
ATOM      4  C   UNL     1      -8.531 -66.635   1.653  1.00  0.00     0.000 C 
BRANCH   4   5
ATOM      5  C   UNL     1      -8.326 -66.001   3.039  1.00  0.00     0.000 C 
BRANCH   5   6
ATOM      6  C   UNL     1      -8.487 -67.021   4.184  1.00  0.00     0.000 C 
BRANCH   6   7
ATOM      7  C   UNL     1      -7.170 -67.365   4.910  1.00  0.00     0.000 C 
BRANCH   7   8
ATOM      8  C   UNL     1      -7.023 -68.857   5.283  1.00  0.00     0.000 C 
BRANCH   8   9
ATOM      9  C   UNL     1      -8.151 -69.744   4.722  1.00  0.00     0.000 C 
BRANCH   9  10
ATOM     10  C   UNL     1      -7.694 -71.193   4.498  1.00  0.00     0.006 C 
BRANCH  10  11
ATOM     11  C   UNL     1      -8.830 -72.041   3.914  1.00  0.00     0.053 C 
BRANCH  11  12
ATOM     12  C   UNL     1      -8.925 -73.367   4.606  1.00  0.00     0.041 C 
ATOM     13  O   UNL     1      -8.294 -74.360   4.160  1.00  0.00    -0.550 OA
ATOM     14  O   UNL     1      -9.754 -73.524   5.711  1.00  0.00    -0.550 OA
ENDBRANCH  11  12
ENDBRANCH  10  11
ENDBRANCH   9  10
ENDBRANCH   8   9
ENDBRANCH   7   8
ENDBRANCH   6   7
ENDBRANCH   5   6
ENDBRANCH   4   5
ENDBRANCH   3   4
ENDBRANCH   2   3
ENDBRANCH   1   2
BRANCH   1  15
ATOM     15  C   UNL     1      -6.193 -65.490  -1.162  1.00  0.00     0.000 C 
BRANCH  15  16
ATOM     16  C   UNL     1      -5.112 -65.470  -0.070  1.00  0.00     0.000 C 
BRANCH  16  17
ATOM     17  C   UNL     1      -5.471 -64.467   1.033  1.00  0.00     0.000 C 
BRANCH  17  18
ATOM     18  C   UNL     1      -4.822 -63.100   0.773  1.00  0.00    -0.000 C 
BRANCH  18  19
ATOM     19  C   UNL     1      -5.857 -61.972   0.598  1.00  0.00    -0.000 C 
BRANCH  19  20
ATOM     20  C   UNL     1      -7.332 -62.423   0.649  1.00  0.00    -0.000 C 
BRANCH  20  21
ATOM     21  C   UNL     1      -8.051 -62.158   1.984  1.00  0.00    -0.000 C 
BRANCH  21  22
ATOM     22  C   UNL     1      -7.401 -61.027   2.794  1.00  0.00    -0.000 C 
BRANCH  22  23
ATOM     23  C   UNL     1      -6.858 -61.550   4.132  1.00  0.00    -0.000 C 
BRANCH  23  24
ATOM     24  C   UNL     1      -7.526 -62.863   4.578  1.00  0.00    -0.000 C 
BRANCH  24  25
ATOM     25  C   UNL     1      -8.675 -62.695   5.588  1.00  0.00    -0.003 C 
ATOM     26  C   UNL     1      -8.849 -63.908   6.503  1.00  0.00     0.004 C 
ENDBRANCH  24  25
ENDBRANCH  23  24
ENDBRANCH  22  23
ENDBRANCH  21  22
ENDBRANCH  20  21
ENDBRANCH  19  20
ENDBRANCH  18  19
ENDBRANCH  17  18
ENDBRANCH  16  17
ENDBRANCH  15  16
ENDBRANCH   1  15
TORSDOF 22
ENDMDL
MODEL 7
REMARK VINA RESULT:    -3.069      3.300      7.835
REMARK INTER + INTRA:         -11.452
REMARK INTER:                  -7.908
REMARK INTRA:                  -3.544
REMARK UNBOUND:                -4.436
REMARK SMILES CCCCCCCCCCCCCCCCCCCCCCCC(=O)[O-]
REMARK SMILES IDX 13 1 14 2 15 3 16 4 17 5 18 6 19 7 20 8 21 9 22 10 23 11
REMARK SMILES IDX 24 12 25 13 26 14 12 15 11 16 10 17 9 18 8 19 7 20 6 21 5 22
REMARK SMILES IDX 4 23 3 24 2 25 1 26
REMARK H PARENT
REMARK Flexibility Score: inf
ROOT
ATOM      1  C   UNL     1      -6.814 -64.594  -1.382  1.00  0.00     0.000 C 
ENDROOT
BRANCH   1   2
ATOM      2  C   UNL     1      -7.052 -66.062  -0.982  1.00  0.00     0.000 C 
BRANCH   2   3
ATOM      3  C   UNL     1      -8.547 -66.386  -0.774  1.00  0.00     0.000 C 
BRANCH   3   4
ATOM      4  C   UNL     1      -8.852 -67.107   0.550  1.00  0.00     0.000 C 
BRANCH   4   5
ATOM      5  C   UNL     1      -9.021 -66.144   1.737  1.00  0.00     0.000 C 
BRANCH   5   6
ATOM      6  C   UNL     1      -8.099 -66.500   2.921  1.00  0.00     0.000 C 
BRANCH   6   7
ATOM      7  C   UNL     1      -7.289 -65.307   3.470  1.00  0.00     0.000 C 
BRANCH   7   8
ATOM      8  C   UNL     1      -7.312 -64.056   2.565  1.00  0.00     0.000 C 
BRANCH   8   9
ATOM      9  C   UNL     1      -6.230 -63.020   2.923  1.00  0.00     0.000 C 
BRANCH   9  10
ATOM     10  C   UNL     1      -6.611 -61.601   2.474  1.00  0.00     0.006 C 
BRANCH  10  11
ATOM     11  C   UNL     1      -8.047 -61.262   2.894  1.00  0.00     0.053 C 
BRANCH  11  12
ATOM     12  C   UNL     1      -8.675 -60.296   1.936  1.00  0.00     0.041 C 
ATOM     13  O   UNL     1      -9.923 -60.134   1.927  1.00  0.00    -0.550 OA
ATOM     14  O   UNL     1      -7.891 -59.613   1.013  1.00  0.00    -0.550 OA
ENDBRANCH  11  12
ENDBRANCH  10  11
ENDBRANCH   9  10
ENDBRANCH   8   9
ENDBRANCH   7   8
ENDBRANCH   6   7
ENDBRANCH   5   6
ENDBRANCH   4   5
ENDBRANCH   3   4
ENDBRANCH   2   3
ENDBRANCH   1   2
BRANCH   1  15
ATOM     15  C   UNL     1      -5.691 -63.935  -0.567  1.00  0.00     0.000 C 
BRANCH  15  16
ATOM     16  C   UNL     1      -4.689 -64.952   0.001  1.00  0.00     0.000 C 
BRANCH  16  17
ATOM     17  C   UNL     1      -3.258 -64.602  -0.426  1.00  0.00     0.000 C 
BRANCH  17  18
ATOM     18  C   UNL     1      -3.201 -63.222  -1.099  1.00  0.00    -0.000 C 
BRANCH  18  19
ATOM     19  C   UNL     1      -2.161 -63.155  -2.233  1.00  0.00    -0.000 C 
BRANCH  19  20
ATOM     20  C   UNL     1      -2.584 -63.835  -3.552  1.00  0.00    -0.000 C 
BRANCH  20  21
ATOM     21  C   UNL     1      -4.054 -63.619  -3.956  1.00  0.00    -0.000 C 
BRANCH  21  22
ATOM     22  C   UNL     1      -4.742 -64.914  -4.409  1.00  0.00    -0.000 C 
BRANCH  22  23
ATOM     23  C   UNL     1      -4.190 -66.128  -3.646  1.00  0.00    -0.000 C 
BRANCH  23  24
ATOM     24  C   UNL     1      -3.757 -67.275  -4.577  1.00  0.00    -0.000 C 
BRANCH  24  25
ATOM     25  C   UNL     1      -3.863 -66.964  -6.081  1.00  0.00    -0.003 C 
ATOM     26  C   UNL     1      -4.291 -68.173  -6.913  1.00  0.00     0.004 C 
ENDBRANCH  24  25
ENDBRANCH  23  24
ENDBRANCH  22  23
ENDBRANCH  21  22
ENDBRANCH  20  21
ENDBRANCH  19  20
ENDBRANCH  18  19
ENDBRANCH  17  18
ENDBRANCH  16  17
ENDBRANCH  15  16
ENDBRANCH   1  15
TORSDOF 22
ENDMDL
MODEL 8
REMARK VINA RESULT:    -3.051      1.640      2.532
REMARK INTER + INTRA:         -11.411
REMARK INTER:                  -7.553
REMARK INTRA:                  -3.857
REMARK UNBOUND:                -4.436
REMARK SMILES CCCCCCCCCCCCCCCCCCCCCCCC(=O)[O-]
REMARK SMILES IDX 13 1 14 2 15 3 16 4 17 5 18 6 19 7 20 8 21 9 22 10 23 11
REMARK SMILES IDX 24 12 25 13 26 14 12 15 11 16 10 17 9 18 8 19 7 20 6 21 5 22
REMARK SMILES IDX 4 23 3 24 2 25 1 26
REMARK H PARENT
REMARK Flexibility Score: inf
ROOT
ATOM      1  C   UNL     1      -7.459 -66.565  -0.749  1.00  0.00     0.000 C 
ENDROOT
BRANCH   1   2
ATOM      2  C   UNL     1      -6.079 -65.889  -0.842  1.00  0.00     0.000 C 
BRANCH   2   3
ATOM      3  C   UNL     1      -5.133 -66.603  -1.831  1.00  0.00     0.000 C 
BRANCH   3   4
ATOM      4  C   UNL     1      -4.327 -65.646  -2.728  1.00  0.00     0.000 C 
BRANCH   4   5
ATOM      5  C   UNL     1      -3.581 -64.560  -1.936  1.00  0.00     0.000 C 
BRANCH   5   6
ATOM      6  C   UNL     1      -2.864 -63.550  -2.855  1.00  0.00     0.000 C 
BRANCH   6   7
ATOM      7  C   UNL     1      -3.626 -63.233  -4.158  1.00  0.00     0.000 C 
BRANCH   7   8
ATOM      8  C   UNL     1      -2.748 -63.263  -5.428  1.00  0.00     0.000 C 
BRANCH   8   9
ATOM      9  C   UNL     1      -2.798 -64.609  -6.177  1.00  0.00     0.000 C 
BRANCH   9  10
ATOM     10  C   UNL     1      -4.238 -65.065  -6.457  1.00  0.00     0.006 C 
BRANCH  10  11
ATOM     11  C   UNL     1      -4.385 -66.576  -6.242  1.00  0.00     0.053 C 
BRANCH  11  12
ATOM     12  C   UNL     1      -4.473 -67.302  -7.551  1.00  0.00     0.041 C 
ATOM     13  O   UNL     1      -4.470 -66.659  -8.632  1.00  0.00    -0.550 OA
ATOM     14  O   UNL     1      -4.616 -68.684  -7.578  1.00  0.00    -0.550 OA
ENDBRANCH  11  12
ENDBRANCH  10  11
ENDBRANCH   9  10
ENDBRANCH   8   9
ENDBRANCH   7   8
ENDBRANCH   6   7
ENDBRANCH   5   6
ENDBRANCH   4   5
ENDBRANCH   3   4
ENDBRANCH   2   3
ENDBRANCH   1   2
BRANCH   1  15
ATOM     15  C   UNL     1      -8.596 -65.557  -0.521  1.00  0.00     0.000 C 
BRANCH  15  16
ATOM     16  C   UNL     1      -9.258 -65.705   0.858  1.00  0.00     0.000 C 
BRANCH  16  17
ATOM     17  C   UNL     1      -8.509 -66.733   1.713  1.00  0.00     0.000 C 
BRANCH  17  18
ATOM     18  C   UNL     1      -8.029 -66.113   3.034  1.00  0.00    -0.000 C 
BRANCH  18  19
ATOM     19  C   UNL     1      -6.688 -65.369   2.890  1.00  0.00    -0.000 C 
BRANCH  19  20
ATOM     20  C   UNL     1      -6.784 -63.829   2.933  1.00  0.00    -0.000 C 
BRANCH  20  21
ATOM     21  C   UNL     1      -6.709 -63.132   1.563  1.00  0.00    -0.000 C 
BRANCH  21  22
ATOM     22  C   UNL     1      -5.269 -62.828   1.129  1.00  0.00    -0.000 C 
BRANCH  22  23
ATOM     23  C   UNL     1      -5.235 -61.704   0.082  1.00  0.00    -0.000 C 
BRANCH  23  24
ATOM     24  C   UNL     1      -6.510 -61.648  -0.779  1.00  0.00    -0.000 C 
BRANCH  24  25
ATOM     25  C   UNL     1      -6.297 -61.956  -2.272  1.00  0.00    -0.003 C 
ATOM     26  C   UNL     1      -7.238 -63.039  -2.799  1.00  0.00     0.004 C 
ENDBRANCH  24  25
ENDBRANCH  23  24
ENDBRANCH  22  23
ENDBRANCH  21  22
ENDBRANCH  20  21
ENDBRANCH  19  20
ENDBRANCH  18  19
ENDBRANCH  17  18
ENDBRANCH  16  17
ENDBRANCH  15  16
ENDBRANCH   1  15
TORSDOF 22
ENDMDL
MODEL 9
REMARK VINA RESULT:    -3.015      1.565      4.152
REMARK INTER + INTRA:         -11.329
REMARK INTER:                  -7.474
REMARK INTRA:                  -3.855
REMARK UNBOUND:                -4.436
REMARK SMILES CCCCCCCCCCCCCCCCCCCCCCCC(=O)[O-]
REMARK SMILES IDX 13 1 14 2 15 3 16 4 17 5 18 6 19 7 20 8 21 9 22 10 23 11
REMARK SMILES IDX 24 12 25 13 26 14 12 15 11 16 10 17 9 18 8 19 7 20 6 21 5 22
REMARK SMILES IDX 4 23 3 24 2 25 1 26
REMARK H PARENT
REMARK Flexibility Score: inf
ROOT
ATOM      1  C   UNL     1      -9.042 -66.117   1.277  1.00  0.00     0.000 C 
ENDROOT
BRANCH   1   2
ATOM      2  C   UNL     1      -8.449 -66.509  -0.089  1.00  0.00     0.000 C 
BRANCH   2   3
ATOM      3  C   UNL     1      -8.319 -65.306  -1.048  1.00  0.00     0.000 C 
BRANCH   3   4
ATOM      4  C   UNL     1      -6.913 -64.683  -1.082  1.00  0.00     0.000 C 
BRANCH   4   5
ATOM      5  C   UNL     1      -5.830 -65.599  -0.488  1.00  0.00     0.000 C 
BRANCH   5   6
ATOM      6  C   UNL     1      -4.931 -66.228  -1.572  1.00  0.00     0.000 C 
BRANCH   6   7
ATOM      7  C   UNL     1      -5.532 -67.484  -2.238  1.00  0.00     0.000 C 
BRANCH   7   8
ATOM      8  C   UNL     1      -4.753 -67.978  -3.476  1.00  0.00     0.000 C 
BRANCH   8   9
ATOM      9  C   UNL     1      -3.985 -66.859  -4.206  1.00  0.00     0.000 C 
BRANCH   9  10
ATOM     10  C   UNL     1      -4.376 -66.756  -5.687  1.00  0.00     0.006 C 
BRANCH  10  11
ATOM     11  C   UNL     1      -4.720 -65.310  -6.064  1.00  0.00     0.053 C 
BRANCH  11  12
ATOM     12  C   UNL     1      -3.653 -64.708  -6.927  1.00  0.00     0.041 C 
ATOM     13  O   UNL     1      -2.650 -65.390  -7.261  1.00  0.00    -0.550 OA
ATOM     14  O   UNL     1      -3.735 -63.377  -7.318  1.00  0.00    -0.550 OA
ENDBRANCH  11  12
ENDBRANCH  10  11
ENDBRANCH   9  10
ENDBRANCH   8   9
ENDBRANCH   7   8
ENDBRANCH   6   7
ENDBRANCH   5   6
ENDBRANCH   4   5
ENDBRANCH   3   4
ENDBRANCH   2   3
ENDBRANCH   1   2
BRANCH   1  15
ATOM     15  C   UNL     1      -8.138 -66.524   2.451  1.00  0.00     0.000 C 
BRANCH  15  16
ATOM     16  C   UNL     1      -7.201 -65.394   2.904  1.00  0.00     0.000 C 
BRANCH  16  17
ATOM     17  C   UNL     1      -7.759 -64.027   2.492  1.00  0.00     0.000 C 
BRANCH  17  18
ATOM     18  C   UNL     1      -6.706 -62.922   2.666  1.00  0.00    -0.000 C 
BRANCH  18  19
ATOM     19  C   UNL     1      -5.273 -63.478   2.779  1.00  0.00    -0.000 C 
BRANCH  19  20
ATOM     20  C   UNL     1      -4.232 -62.800   1.864  1.00  0.00    -0.000 C 
BRANCH  20  21
ATOM     21  C   UNL     1      -4.805 -62.153   0.590  1.00  0.00    -0.000 C 
BRANCH  21  22
ATOM     22  C   UNL     1      -3.824 -62.192  -0.590  1.00  0.00    -0.000 C 
BRANCH  22  23
ATOM     23  C   UNL     1      -2.835 -63.358  -0.444  1.00  0.00    -0.000 C 
BRANCH  23  24
ATOM     24  C   UNL     1      -2.028 -63.622  -1.728  1.00  0.00    -0.000 C 
BRANCH  24  25
ATOM     25  C   UNL     1      -2.853 -63.607  -3.028  1.00  0.00    -0.003 C 
ATOM     26  C   UNL     1      -2.231 -62.737  -4.120  1.00  0.00     0.004 C 
ENDBRANCH  24  25
ENDBRANCH  23  24
ENDBRANCH  22  23
ENDBRANCH  21  22
ENDBRANCH  20  21
ENDBRANCH  19  20
ENDBRANCH  18  19
ENDBRANCH  17  18
ENDBRANCH  16  17
ENDBRANCH  15  16
ENDBRANCH   1  15
TORSDOF 22
ENDMDL
