MODEL 1
REMARK VINA RESULT:    -3.233      0.000      0.000
REMARK INTER + INTRA:          -7.664
REMARK INTER:                  -5.878
REMARK INTRA:                  -1.786
REMARK UNBOUND:                -1.786
REMARK SMILES CCCCCCCCCCCCCCCC(=O)[O-]
REMARK SMILES IDX 9 1 10 2 11 3 12 4 13 5 14 6 15 7 16 8 17 9 18 10 8 11 7 12
REMARK SMILES IDX 6 13 5 14 4 15 3 16 2 17 1 18
REMARK H PARENT
REMARK Flexibility Score: inf
ROOT
ATOM      1  C   UNL     1      15.454   4.618  16.633  1.00  0.00     0.000 C 
ENDROOT
BRANCH   1   2
ATOM      2  C   UNL     1      14.962   3.946  17.925  1.00  0.00     0.000 C 
BRANCH   2   3
ATOM      3  C   UNL     1      13.445   4.099  18.134  1.00  0.00     0.000 C 
BRANCH   3   4
ATOM      4  C   UNL     1      12.985   5.564  18.055  1.00  0.00     0.000 C 
BRANCH   4   5
ATOM      5  C   UNL     1      13.160   6.309  19.390  1.00  0.00     0.000 C 
BRANCH   5   6
ATOM      6  C   UNL     1      11.940   7.174  19.747  1.00  0.00     0.006 C 
BRANCH   6   7
ATOM      7  C   UNL     1      10.902   6.413  20.581  1.00  0.00     0.053 C 
BRANCH   7   8
ATOM      8  C   UNL     1       9.651   6.199  19.787  1.00  0.00     0.041 C 
ATOM      9  O   UNL     1       9.559   5.220  19.001  1.00  0.00    -0.550 OA
ATOM     10  O   UNL     1       8.605   7.109  19.879  1.00  0.00    -0.550 OA
ENDBRANCH   7   8
ENDBRANCH   6   7
ENDBRANCH   5   6
ENDBRANCH   4   5
ENDBRANCH   3   4
ENDBRANCH   2   3
ENDBRANCH   1   2
BRANCH   1  11
ATOM     11  C   UNL     1      16.541   5.675  16.894  1.00  0.00     0.000 C 
BRANCH  11  12
ATOM     12  C   UNL     1      16.916   5.793  18.383  1.00  0.00    -0.000 C 
BRANCH  12  13
ATOM     13  C   UNL     1      16.972   7.231  18.929  1.00  0.00    -0.000 C 
BRANCH  13  14
ATOM     14  C   UNL     1      17.694   7.329  20.285  1.00  0.00    -0.000 C 
BRANCH  14  15
ATOM     15  C   UNL     1      17.828   5.969  20.986  1.00  0.00    -0.000 C 
BRANCH  15  16
ATOM     16  C   UNL     1      17.467   6.039  22.480  1.00  0.00    -0.000 C 
BRANCH  16  17
ATOM     17  C   UNL     1      16.231   5.194  22.827  1.00  0.00    -0.003 C 
ATOM     18  C   UNL     1      15.611   4.520  21.602  1.00  0.00     0.004 C 
ENDBRANCH  16  17
ENDBRANCH  15  16
ENDBRANCH  14  15
ENDBRANCH  13  14
ENDBRANCH  12  13
ENDBRANCH  11  12
ENDBRANCH   1  11
TORSDOF 14
ENDMDL
MODEL 2
REMARK VINA RESULT:    -3.206      3.001      6.031
REMARK INTER + INTRA:          -7.615
REMARK INTER:                  -6.106
REMARK INTRA:                  -1.509
REMARK UNBOUND:                -1.786
REMARK SMILES CCCCCCCCCCCCCCCC(=O)[O-]
REMARK SMILES IDX 9 1 10 2 11 3 12 4 13 5 14 6 15 7 16 8 17 9 18 10 8 11 7 12
REMARK SMILES IDX 6 13 5 14 4 15 3 16 2 17 1 18
REMARK H PARENT
REMARK Flexibility Score: inf
ROOT
ATOM      1  C   UNL     1      14.676   4.507  16.870  1.00  0.00     0.000 C 
ENDROOT
BRANCH   1   2
ATOM      2  C   UNL     1      15.827   4.073  17.793  1.00  0.00     0.000 C 
BRANCH   2   3
ATOM      3  C   UNL     1      17.209   4.238  17.136  1.00  0.00     0.000 C 
BRANCH   3   4
ATOM      4  C   UNL     1      18.053   5.332  17.811  1.00  0.00     0.000 C 
BRANCH   4   5
ATOM      5  C   UNL     1      17.434   6.732  17.658  1.00  0.00     0.000 C 
BRANCH   5   6
ATOM      6  C   UNL     1      16.924   7.300  18.992  1.00  0.00     0.006 C 
BRANCH   6   7
ATOM      7  C   UNL     1      18.015   7.347  20.068  1.00  0.00     0.053 C 
BRANCH   7   8
ATOM      8  C   UNL     1      17.605   6.545  21.263  1.00  0.00     0.041 C 
ATOM      9  O   UNL     1      18.006   6.868  22.411  1.00  0.00    -0.550 OA
ATOM     10  O   UNL     1      16.820   5.410  21.102  1.00  0.00    -0.550 OA
ENDBRANCH   7   8
ENDBRANCH   6   7
ENDBRANCH   5   6
ENDBRANCH   4   5
ENDBRANCH   3   4
ENDBRANCH   2   3
ENDBRANCH   1   2
BRANCH   1  11
ATOM     11  C   UNL     1      13.338   4.638  17.618  1.00  0.00     0.000 C 
BRANCH  11  12
ATOM     12  C   UNL     1      13.340   5.778  18.653  1.00  0.00    -0.000 C 
BRANCH  12  13
ATOM     13  C   UNL     1      13.343   5.324  20.124  1.00  0.00    -0.000 C 
BRANCH  13  14
ATOM     14  C   UNL     1      12.244   6.001  20.962  1.00  0.00    -0.000 C 
BRANCH  14  15
ATOM     15  C   UNL     1      11.381   6.969  20.139  1.00  0.00    -0.000 C 
BRANCH  15  16
ATOM     16  C   UNL     1       9.906   6.532  20.076  1.00  0.00    -0.000 C 
BRANCH  16  17
ATOM     17  C   UNL     1       9.635   5.539  18.934  1.00  0.00    -0.003 C 
ATOM     18  C   UNL     1       8.868   4.301  19.396  1.00  0.00     0.004 C 
ENDBRANCH  16  17
ENDBRANCH  15  16
ENDBRANCH  14  15
ENDBRANCH  13  14
ENDBRANCH  12  13
ENDBRANCH  11  12
ENDBRANCH   1  11
TORSDOF 14
ENDMDL
MODEL 3
REMARK VINA RESULT:    -3.198      3.958      6.753
REMARK INTER + INTRA:          -7.601
REMARK INTER:                  -5.950
REMARK INTRA:                  -1.651
REMARK UNBOUND:                -1.786
REMARK SMILES CCCCCCCCCCCCCCCC(=O)[O-]
REMARK SMILES IDX 9 1 10 2 11 3 12 4 13 5 14 6 15 7 16 8 17 9 18 10 8 11 7 12
REMARK SMILES IDX 6 13 5 14 4 15 3 16 2 17 1 18
REMARK H PARENT
REMARK Flexibility Score: inf
ROOT
ATOM      1  C   UNL     1      14.977   4.379  16.841  1.00  0.00     0.000 C 
ENDROOT
BRANCH   1   2
ATOM      2  C   UNL     1      16.342   4.934  17.282  1.00  0.00     0.000 C 
BRANCH   2   3
ATOM      3  C   UNL     1      16.646   4.651  18.764  1.00  0.00     0.000 C 
BRANCH   3   4
ATOM      4  C   UNL     1      17.125   5.904  19.516  1.00  0.00     0.000 C 
BRANCH   4   5
ATOM      5  C   UNL     1      17.028   7.177  18.658  1.00  0.00     0.000 C 
BRANCH   5   6
ATOM      6  C   UNL     1      18.382   7.888  18.501  1.00  0.00     0.006 C 
BRANCH   6   7
ATOM      7  C   UNL     1      19.476   6.958  17.962  1.00  0.00     0.053 C 
BRANCH   7   8
ATOM      8  C   UNL     1      19.454   6.938  16.466  1.00  0.00     0.041 C 
ATOM      9  O   UNL     1      19.394   8.016  15.819  1.00  0.00    -0.550 OA
ATOM     10  O   UNL     1      19.450   5.726  15.787  1.00  0.00    -0.550 OA
ENDBRANCH   7   8
ENDBRANCH   6   7
ENDBRANCH   5   6
ENDBRANCH   4   5
ENDBRANCH   3   4
ENDBRANCH   2   3
ENDBRANCH   1   2
BRANCH   1  11
ATOM     11  C   UNL     1      13.993   4.230  18.014  1.00  0.00     0.000 C 
BRANCH  11  12
ATOM     12  C   UNL     1      12.973   5.381  18.088  1.00  0.00    -0.000 C 
BRANCH  12  13
ATOM     13  C   UNL     1      13.373   6.549  19.008  1.00  0.00    -0.000 C 
BRANCH  13  14
ATOM     14  C   UNL     1      12.170   7.186  19.726  1.00  0.00    -0.000 C 
BRANCH  14  15
ATOM     15  C   UNL     1      11.173   6.142  20.252  1.00  0.00    -0.000 C 
BRANCH  15  16
ATOM     16  C   UNL     1       9.716   6.491  19.899  1.00  0.00    -0.000 C 
BRANCH  16  17
ATOM     17  C   UNL     1       8.876   5.245  19.572  1.00  0.00    -0.003 C 
ATOM     18  C   UNL     1       9.721   4.079  19.059  1.00  0.00     0.004 C 
ENDBRANCH  16  17
ENDBRANCH  15  16
ENDBRANCH  14  15
ENDBRANCH  13  14
ENDBRANCH  12  13
ENDBRANCH  11  12
ENDBRANCH   1  11
TORSDOF 14
ENDMDL
MODEL 4
REMARK VINA RESULT:    -3.128      3.499      6.329
REMARK INTER + INTRA:          -7.474
REMARK INTER:                  -6.279
REMARK INTRA:                  -1.195
REMARK UNBOUND:                -1.786
REMARK SMILES CCCCCCCCCCCCCCCC(=O)[O-]
REMARK SMILES IDX 9 1 10 2 11 3 12 4 13 5 14 6 15 7 16 8 17 9 18 10 8 11 7 12
REMARK SMILES IDX 6 13 5 14 4 15 3 16 2 17 1 18
REMARK H PARENT
REMARK Flexibility Score: inf
ROOT
ATOM      1  C   UNL     1      15.620   4.930  16.978  1.00  0.00     0.000 C 
ENDROOT
BRANCH   1   2
ATOM      2  C   UNL     1      17.078   5.028  16.501  1.00  0.00     0.000 C 
BRANCH   2   3
ATOM      3  C   UNL     1      18.015   5.612  17.573  1.00  0.00     0.000 C 
BRANCH   3   4
ATOM      4  C   UNL     1      17.697   7.081  17.895  1.00  0.00     0.000 C 
BRANCH   4   5
ATOM      5  C   UNL     1      16.971   7.244  19.242  1.00  0.00     0.000 C 
BRANCH   5   6
ATOM      6  C   UNL     1      17.791   6.702  20.423  1.00  0.00     0.006 C 
BRANCH   6   7
ATOM      7  C   UNL     1      18.771   7.739  20.986  1.00  0.00     0.053 C 
BRANCH   7   8
ATOM      8  C   UNL     1      18.431   8.061  22.408  1.00  0.00     0.041 C 
ATOM      9  O   UNL     1      19.066   8.956  23.024  1.00  0.00    -0.550 OA
ATOM     10  O   UNL     1      17.445   7.338  23.067  1.00  0.00    -0.550 OA
ENDBRANCH   7   8
ENDBRANCH   6   7
ENDBRANCH   5   6
ENDBRANCH   4   5
ENDBRANCH   3   4
ENDBRANCH   2   3
ENDBRANCH   1   2
BRANCH   1  11
ATOM     11  C   UNL     1      15.441   3.920  18.125  1.00  0.00     0.000 C 
BRANCH  11  12
ATOM     12  C   UNL     1      14.066   4.028  18.808  1.00  0.00    -0.000 C 
BRANCH  12  13
ATOM     13  C   UNL     1      12.889   4.332  17.862  1.00  0.00    -0.000 C 
BRANCH  13  14
ATOM     14  C   UNL     1      12.250   5.708  18.124  1.00  0.00    -0.000 C 
BRANCH  14  15
ATOM     15  C   UNL     1      12.568   6.253  19.524  1.00  0.00    -0.000 C 
BRANCH  15  16
ATOM     16  C   UNL     1      11.399   7.057  20.121  1.00  0.00    -0.000 C 
BRANCH  16  17
ATOM     17  C   UNL     1      10.096   6.244  20.181  1.00  0.00    -0.003 C 
ATOM     18  C   UNL     1       8.858   7.087  19.878  1.00  0.00     0.004 C 
ENDBRANCH  16  17
ENDBRANCH  15  16
ENDBRANCH  14  15
ENDBRANCH  13  14
ENDBRANCH  12  13
ENDBRANCH  11  12
ENDBRANCH   1  11
TORSDOF 14
ENDMDL
MODEL 5
REMARK VINA RESULT:    -3.122      1.436      2.131
REMARK INTER + INTRA:          -7.463
REMARK INTER:                  -5.660
REMARK INTRA:                  -1.803
REMARK UNBOUND:                -1.786
REMARK SMILES CCCCCCCCCCCCCCCC(=O)[O-]
REMARK SMILES IDX 9 1 10 2 11 3 12 4 13 5 14 6 15 7 16 8 17 9 18 10 8 11 7 12
REMARK SMILES IDX 6 13 5 14 4 15 3 16 2 17 1 18
REMARK H PARENT
REMARK Flexibility Score: inf
ROOT
ATOM      1  C   UNL     1      14.606   4.614  17.071  1.00  0.00     0.000 C 
ENDROOT
BRANCH   1   2
ATOM      2  C   UNL     1      14.676   3.997  18.478  1.00  0.00     0.000 C 
BRANCH   2   3
ATOM      3  C   UNL     1      14.213   4.970  19.577  1.00  0.00     0.000 C 
BRANCH   3   4
ATOM      4  C   UNL     1      13.900   6.371  19.028  1.00  0.00     0.000 C 
BRANCH   4   5
ATOM      5  C   UNL     1      12.522   6.886  19.480  1.00  0.00     0.000 C 
BRANCH   5   6
ATOM      6  C   UNL     1      11.617   5.762  20.009  1.00  0.00     0.006 C 
BRANCH   6   7
ATOM      7  C   UNL     1      10.591   5.293  18.970  1.00  0.00     0.053 C 
BRANCH   7   8
ATOM      8  C   UNL     1       9.200   5.474  19.491  1.00  0.00     0.041 C 
ATOM      9  O   UNL     1       8.390   4.510  19.483  1.00  0.00    -0.550 OA
ATOM     10  O   UNL     1       8.782   6.721  19.939  1.00  0.00    -0.550 OA
ENDBRANCH   7   8
ENDBRANCH   6   7
ENDBRANCH   5   6
ENDBRANCH   4   5
ENDBRANCH   3   4
ENDBRANCH   2   3
ENDBRANCH   1   2
BRANCH   1  11
ATOM     11  C   UNL     1      15.986   4.705  16.398  1.00  0.00     0.000 C 
BRANCH  11  12
ATOM     12  C   UNL     1      17.110   4.085  17.248  1.00  0.00    -0.000 C 
BRANCH  12  13
ATOM     13  C   UNL     1      17.926   5.090  18.082  1.00  0.00    -0.000 C 
BRANCH  13  14
ATOM     14  C   UNL     1      17.747   6.544  17.611  1.00  0.00    -0.000 C 
BRANCH  14  15
ATOM     15  C   UNL     1      17.350   7.493  18.752  1.00  0.00    -0.000 C 
BRANCH  15  16
ATOM     16  C   UNL     1      17.445   6.823  20.134  1.00  0.00    -0.000 C 
BRANCH  16  17
ATOM     17  C   UNL     1      18.281   7.644  21.129  1.00  0.00    -0.003 C 
ATOM     18  C   UNL     1      19.207   6.776  21.982  1.00  0.00     0.004 C 
ENDBRANCH  16  17
ENDBRANCH  15  16
ENDBRANCH  14  15
ENDBRANCH  13  14
ENDBRANCH  12  13
ENDBRANCH  11  12
ENDBRANCH   1  11
TORSDOF 14
ENDMDL
MODEL 6
REMARK VINA RESULT:    -3.075      3.170      6.344
REMARK INTER + INTRA:          -7.377
REMARK INTER:                  -5.847
REMARK INTRA:                  -1.531
REMARK UNBOUND:                -1.786
REMARK SMILES CCCCCCCCCCCCCCCC(=O)[O-]
REMARK SMILES IDX 9 1 10 2 11 3 12 4 13 5 14 6 15 7 16 8 17 9 18 10 8 11 7 12
REMARK SMILES IDX 6 13 5 14 4 15 3 16 2 17 1 18
REMARK H PARENT
REMARK Flexibility Score: inf
ROOT
ATOM      1  C   UNL     1      14.709   4.820  20.802  1.00  0.00     0.000 C 
ENDROOT
BRANCH   1   2
ATOM      2  C   UNL     1      15.889   4.365  21.676  1.00  0.00     0.000 C 
BRANCH   2   3
ATOM      3  C   UNL     1      17.182   4.157  20.868  1.00  0.00     0.000 C 
BRANCH   3   4
ATOM      4  C   UNL     1      18.336   5.043  21.366  1.00  0.00     0.000 C 
BRANCH   4   5
ATOM      5  C   UNL     1      18.765   6.090  20.325  1.00  0.00     0.000 C 
BRANCH   5   6
ATOM      6  C   UNL     1      17.853   7.327  20.321  1.00  0.00     0.006 C 
BRANCH   6   7
ATOM      7  C   UNL     1      17.040   7.456  19.027  1.00  0.00     0.053 C 
BRANCH   7   8
ATOM      8  C   UNL     1      17.854   7.011  17.852  1.00  0.00     0.041 C 
ATOM      9  O   UNL     1      18.763   7.752  17.394  1.00  0.00    -0.550 OA
ATOM     10  O   UNL     1      17.576   5.799  17.233  1.00  0.00    -0.550 OA
ENDBRANCH   7   8
ENDBRANCH   6   7
ENDBRANCH   5   6
ENDBRANCH   4   5
ENDBRANCH   3   4
ENDBRANCH   2   3
ENDBRANCH   1   2
BRANCH   1  11
ATOM     11  C   UNL     1      14.720   4.165  19.410  1.00  0.00     0.000 C 
BRANCH  11  12
ATOM     12  C   UNL     1      14.407   5.159  18.277  1.00  0.00    -0.000 C 
BRANCH  12  13
ATOM     13  C   UNL     1      12.960   5.686  18.255  1.00  0.00    -0.000 C 
BRANCH  13  14
ATOM     14  C   UNL     1      12.793   7.013  19.017  1.00  0.00    -0.000 C 
BRANCH  14  15
ATOM     15  C   UNL     1      11.653   6.968  20.045  1.00  0.00    -0.000 C 
BRANCH  15  16
ATOM     16  C   UNL     1      10.865   5.646  19.992  1.00  0.00    -0.000 C 
BRANCH  16  17
ATOM     17  C   UNL     1       9.404   5.849  19.559  1.00  0.00    -0.003 C 
ATOM     18  C   UNL     1       8.851   7.216  19.964  1.00  0.00     0.004 C 
ENDBRANCH  16  17
ENDBRANCH  15  16
ENDBRANCH  14  15
ENDBRANCH  13  14
ENDBRANCH  12  13
ENDBRANCH  11  12
ENDBRANCH   1  11
TORSDOF 14
ENDMDL
MODEL 7
REMARK VINA RESULT:    -3.074      2.306      5.292
REMARK INTER + INTRA:          -7.376
REMARK INTER:                  -5.705
REMARK INTRA:                  -1.671
REMARK UNBOUND:                -1.786
REMARK SMILES CCCCCCCCCCCCCCCC(=O)[O-]
REMARK SMILES IDX 9 1 10 2 11 3 12 4 13 5 14 6 15 7 16 8 17 9 18 10 8 11 7 12
REMARK SMILES IDX 6 13 5 14 4 15 3 16 2 17 1 18
REMARK H PARENT
REMARK Flexibility Score: inf
ROOT
ATOM      1  C   UNL     1      16.321   3.884  16.685  1.00  0.00     0.000 C 
ENDROOT
BRANCH   1   2
ATOM      2  C   UNL     1      17.080   5.140  16.227  1.00  0.00     0.000 C 
BRANCH   2   3
ATOM      3  C   UNL     1      17.139   6.227  17.315  1.00  0.00     0.000 C 
BRANCH   3   4
ATOM      4  C   UNL     1      18.192   5.924  18.393  1.00  0.00     0.000 C 
BRANCH   4   5
ATOM      5  C   UNL     1      17.668   6.185  19.817  1.00  0.00     0.000 C 
BRANCH   5   6
ATOM      6  C   UNL     1      16.182   5.826  19.974  1.00  0.00     0.006 C 
BRANCH   6   7
ATOM      7  C   UNL     1      15.973   4.447  20.612  1.00  0.00     0.053 C 
BRANCH   7   8
ATOM      8  C   UNL     1      15.062   4.553  21.795  1.00  0.00     0.041 C 
ATOM      9  O   UNL     1      13.846   4.247  21.687  1.00  0.00    -0.550 OA
ATOM     10  O   UNL     1      15.546   5.037  23.004  1.00  0.00    -0.550 OA
ENDBRANCH   7   8
ENDBRANCH   6   7
ENDBRANCH   5   6
ENDBRANCH   4   5
ENDBRANCH   3   4
ENDBRANCH   2   3
ENDBRANCH   1   2
BRANCH   1  11
ATOM     11  C   UNL     1      14.817   3.954  16.367  1.00  0.00     0.000 C 
BRANCH  11  12
ATOM     12  C   UNL     1      13.938   3.943  17.631  1.00  0.00    -0.000 C 
BRANCH  12  13
ATOM     13  C   UNL     1      12.557   4.605  17.469  1.00  0.00    -0.000 C 
BRANCH  13  14
ATOM     14  C   UNL     1      11.982   5.125  18.799  1.00  0.00    -0.000 C 
BRANCH  14  15
ATOM     15  C   UNL     1      12.581   6.477  19.216  1.00  0.00    -0.000 C 
BRANCH  15  16
ATOM     16  C   UNL     1      11.609   7.314  20.065  1.00  0.00    -0.000 C 
BRANCH  16  17
ATOM     17  C   UNL     1      10.379   6.509  20.516  1.00  0.00    -0.003 C 
ATOM     18  C   UNL     1       9.083   6.994  19.867  1.00  0.00     0.004 C 
ENDBRANCH  16  17
ENDBRANCH  15  16
ENDBRANCH  14  15
ENDBRANCH  13  14
ENDBRANCH  12  13
ENDBRANCH  11  12
ENDBRANCH   1  11
TORSDOF 14
ENDMDL
MODEL 8
REMARK VINA RESULT:    -3.028      1.330      3.049
REMARK INTER + INTRA:          -7.292
REMARK INTER:                  -5.498
REMARK INTRA:                  -1.794
REMARK UNBOUND:                -1.786
REMARK SMILES CCCCCCCCCCCCCCCC(=O)[O-]
REMARK SMILES IDX 9 1 10 2 11 3 12 4 13 5 14 6 15 7 16 8 17 9 18 10 8 11 7 12
REMARK SMILES IDX 6 13 5 14 4 15 3 16 2 17 1 18
REMARK H PARENT
REMARK Flexibility Score: inf
ROOT
ATOM      1  C   UNL     1      15.201   4.312  18.939  1.00  0.00     0.000 C 
ENDROOT
BRANCH   1   2
ATOM      2  C   UNL     1      14.743   5.780  18.944  1.00  0.00     0.000 C 
BRANCH   2   3
ATOM      3  C   UNL     1      13.222   5.926  19.131  1.00  0.00     0.000 C 
BRANCH   3   4
ATOM      4  C   UNL     1      12.428   5.423  17.913  1.00  0.00     0.000 C 
BRANCH   4   5
ATOM      5  C   UNL     1      11.623   4.149  18.222  1.00  0.00     0.000 C 
BRANCH   5   6
ATOM      6  C   UNL     1      10.730   4.301  19.463  1.00  0.00     0.006 C 
BRANCH   6   7
ATOM      7  C   UNL     1       9.453   5.100  19.176  1.00  0.00     0.053 C 
BRANCH   7   8
ATOM      8  C   UNL     1       9.437   6.365  19.976  1.00  0.00     0.041 C 
ATOM      9  O   UNL     1       8.507   7.200  19.823  1.00  0.00    -0.550 OA
ATOM     10  O   UNL     1      10.477   6.645  20.854  1.00  0.00    -0.550 OA
ENDBRANCH   7   8
ENDBRANCH   6   7
ENDBRANCH   5   6
ENDBRANCH   4   5
ENDBRANCH   3   4
ENDBRANCH   2   3
ENDBRANCH   1   2
BRANCH   1  11
ATOM     11  C   UNL     1      16.258   4.021  20.018  1.00  0.00     0.000 C 
BRANCH  11  12
ATOM     12  C   UNL     1      16.080   4.887  21.279  1.00  0.00    -0.000 C 
BRANCH  12  13
ATOM     13  C   UNL     1      17.362   5.575  21.783  1.00  0.00    -0.000 C 
BRANCH  13  14
ATOM     14  C   UNL     1      18.261   6.079  20.640  1.00  0.00    -0.000 C 
BRANCH  14  15
ATOM     15  C   UNL     1      17.803   7.434  20.078  1.00  0.00    -0.000 C 
BRANCH  15  16
ATOM     16  C   UNL     1      18.188   7.618  18.599  1.00  0.00    -0.000 C 
BRANCH  16  17
ATOM     17  C   UNL     1      18.406   6.278  17.878  1.00  0.00    -0.003 C 
ATOM     18  C   UNL     1      17.555   6.139  16.616  1.00  0.00     0.004 C 
ENDBRANCH  16  17
ENDBRANCH  15  16
ENDBRANCH  14  15
ENDBRANCH  13  14
ENDBRANCH  12  13
ENDBRANCH  11  12
ENDBRANCH   1  11
TORSDOF 14
ENDMDL
MODEL 9
REMARK VINA RESULT:    -2.942     22.477     23.846
REMARK INTER + INTRA:          -7.136
REMARK INTER:                  -5.749
REMARK INTRA:                  -1.387
REMARK UNBOUND:                -1.786
REMARK SMILES CCCCCCCCCCCCCCCC(=O)[O-]
REMARK SMILES IDX 9 1 10 2 11 3 12 4 13 5 14 6 15 7 16 8 17 9 18 10 8 11 7 12
REMARK SMILES IDX 6 13 5 14 4 15 3 16 2 17 1 18
REMARK H PARENT
REMARK Flexibility Score: inf
ROOT
ATOM      1  C   UNL     1       1.387  20.407   7.742  1.00  0.00     0.000 C 
ENDROOT
BRANCH   1   2
ATOM      2  C   UNL     1       0.202  19.717   8.439  1.00  0.00     0.000 C 
BRANCH   2   3
ATOM      3  C   UNL     1      -0.125  20.339   9.809  1.00  0.00     0.000 C 
BRANCH   3   4
ATOM      4  C   UNL     1       0.933  21.360  10.259  1.00  0.00     0.000 C 
BRANCH   4   5
ATOM      5  C   UNL     1       0.315  22.714  10.649  1.00  0.00     0.000 C 
BRANCH   5   6
ATOM      6  C   UNL     1       0.949  23.892   9.893  1.00  0.00     0.006 C 
BRANCH   6   7
ATOM      7  C   UNL     1       0.450  24.002   8.447  1.00  0.00     0.053 C 
BRANCH   7   8
ATOM      8  C   UNL     1       1.605  24.008   7.495  1.00  0.00     0.041 C 
ATOM      9  O   UNL     1       1.401  24.027   6.253  1.00  0.00    -0.550 OA
ATOM     10  O   UNL     1       2.905  23.943   7.979  1.00  0.00    -0.550 OA
ENDBRANCH   7   8
ENDBRANCH   6   7
ENDBRANCH   5   6
ENDBRANCH   4   5
ENDBRANCH   3   4
ENDBRANCH   2   3
ENDBRANCH   1   2
BRANCH   1  11
ATOM     11  C   UNL     1       1.561  19.950   6.284  1.00  0.00     0.000 C 
BRANCH  11  12
ATOM     12  C   UNL     1       1.413  18.427   6.112  1.00  0.00    -0.000 C 
BRANCH  12  13
ATOM     13  C   UNL     1       2.446  17.774   5.175  1.00  0.00    -0.000 C 
BRANCH  13  14
ATOM     14  C   UNL     1       3.741  18.595   5.045  1.00  0.00    -0.000 C 
BRANCH  14  15
ATOM     15  C   UNL     1       4.447  18.381   3.697  1.00  0.00    -0.000 C 
BRANCH  15  16
ATOM     16  C   UNL     1       4.707  19.703   2.954  1.00  0.00    -0.000 C 
BRANCH  16  17
ATOM     17  C   UNL     1       4.277  20.932   3.771  1.00  0.00    -0.003 C 
ATOM     18  C   UNL     1       4.976  22.216   3.324  1.00  0.00     0.004 C 
ENDBRANCH  16  17
ENDBRANCH  15  16
ENDBRANCH  14  15
ENDBRANCH  13  14
ENDBRANCH  12  13
ENDBRANCH  11  12
ENDBRANCH   1  11
TORSDOF 14
ENDMDL
