MODEL 1
REMARK VINA RESULT:    -5.013      0.000      0.000
REMARK INTER + INTRA:          -6.172
REMARK INTER:                  -5.893
REMARK INTRA:                  -0.280
REMARK UNBOUND:                -0.280
REMARK SMILES O=c1cc(-c2ccc(O)c(O)c2)oc2cc(O)cc(O)c12
REMARK SMILES IDX 4 1 3 2 2 3 1 4 21 5 19 6 18 7 16 8 15 9 14 10 13 11 5 12
REMARK SMILES IDX 6 13 7 14 8 15 12 16 10 17 9 18 11 20 20 22 17 24
REMARK H PARENT 9 19 11 21 20 23 17 25
REMARK Flexibility Score: inf
ROOT
ATOM      1  C   UNL     1     103.470 102.152  92.783  1.00  0.00     0.138 A 
ATOM      2  C   UNL     1     104.710 101.996  92.150  1.00  0.00     0.100 A 
ATOM      3  C   UNL     1     105.278 100.726  92.046  1.00  0.00     0.197 A 
ATOM      4  O   UNL     1     106.363 100.609  91.418  1.00  0.00    -0.289 OA
ATOM      5  C   UNL     1     104.614  99.611  92.610  1.00  0.00     0.107 A 
ATOM      6  C   UNL     1     105.117  98.275  92.601  1.00  0.00     0.134 A 
ATOM      7  C   UNL     1     104.318  97.234  93.085  1.00  0.00     0.093 A 
ATOM      8  C   UNL     1     103.061  97.484  93.633  1.00  0.00     0.123 A 
ATOM      9  C   UNL     1     102.580  98.793  93.696  1.00  0.00     0.094 A 
ATOM     10  C   UNL     1     103.340  99.850  93.189  1.00  0.00     0.146 A 
ATOM     11  O   UNL     1     102.841 101.080  93.255  1.00  0.00    -0.456 OA
ENDROOT
BRANCH   1  12
ATOM     12  C   UNL     1     102.820 103.480  92.922  1.00  0.00     0.021 A 
ATOM     13  C   UNL     1     102.536 104.235  91.771  1.00  0.00     0.016 A 
ATOM     14  C   UNL     1     101.918 105.483  91.874  1.00  0.00     0.051 A 
ATOM     15  C   UNL     1     101.565 105.995  93.129  1.00  0.00     0.157 A 
ATOM     16  C   UNL     1     102.450 103.995  94.180  1.00  0.00     0.062 A 
ATOM     17  C   UNL     1     101.828 105.248  94.283  1.00  0.00     0.158 A 
BRANCH  15  18
ATOM     18  O   UNL     1     100.949 107.240  93.236  1.00  0.00    -0.504 OA
ATOM     19  H   UNL     1     101.479 108.077  93.454  1.00  0.00     0.293 HD
ENDBRANCH  15  18
BRANCH  17  20
ATOM     20  O   UNL     1     101.465 105.755  95.530  1.00  0.00    -0.504 OA
ATOM     21  H   UNL     1     101.062 106.679  95.630  1.00  0.00     0.293 HD
ENDBRANCH  17  20
ENDBRANCH   1  12
BRANCH   6  22
ATOM     22  O   UNL     1     106.396  97.925  92.154  1.00  0.00    -0.507 OA
ATOM     23  H   UNL     1     107.146  97.606  92.747  1.00  0.00     0.293 HD
ENDBRANCH   6  22
BRANCH   8  24
ATOM     24  O   UNL     1     102.298  96.424  94.120  1.00  0.00    -0.508 OA
ATOM     25  H   UNL     1     102.381  96.108  95.080  1.00  0.00     0.293 HD
ENDBRANCH   8  24
TORSDOF 5
ENDMDL
MODEL 2
REMARK VINA RESULT:    -4.987      4.299      7.387
REMARK INTER + INTRA:          -6.142
REMARK INTER:                  -5.835
REMARK INTRA:                  -0.307
REMARK UNBOUND:                -0.280
REMARK SMILES O=c1cc(-c2ccc(O)c(O)c2)oc2cc(O)cc(O)c12
REMARK SMILES IDX 4 1 3 2 2 3 1 4 21 5 19 6 18 7 16 8 15 9 14 10 13 11 5 12
REMARK SMILES IDX 6 13 7 14 8 15 12 16 10 17 9 18 11 20 20 22 17 24
REMARK H PARENT 9 19 11 21 20 23 17 25
REMARK Flexibility Score: inf
ROOT
ATOM      1  C   UNL     1     100.347 108.358  93.182  1.00  0.00     0.138 A 
ATOM      2  C   UNL     1      99.046 107.926  92.890  1.00  0.00     0.100 A 
ATOM      3  C   UNL     1      98.755 106.561  92.887  1.00  0.00     0.197 A 
ATOM      4  O   UNL     1      97.565 106.207  92.683  1.00  0.00    -0.289 OA
ATOM      5  C   UNL     1      99.783 105.623  93.145  1.00  0.00     0.107 A 
ATOM      6  C   UNL     1      99.613 104.206  93.128  1.00  0.00     0.134 A 
ATOM      7  C   UNL     1     100.674 103.379  93.514  1.00  0.00     0.093 A 
ATOM      8  C   UNL     1     101.916 103.912  93.858  1.00  0.00     0.123 A 
ATOM      9  C   UNL     1     102.109 105.294  93.827  1.00  0.00     0.094 A 
ATOM     10  C   UNL     1     101.059 106.148  93.480  1.00  0.00     0.146 A 
ATOM     11  O   UNL     1     101.281 107.458  93.475  1.00  0.00    -0.456 OA
ENDROOT
BRANCH   1  12
ATOM     12  C   UNL     1     100.711 109.797  93.199  1.00  0.00     0.021 A 
ATOM     13  C   UNL     1      99.997 110.701  92.393  1.00  0.00     0.016 A 
ATOM     14  C   UNL     1     100.315 112.061  92.397  1.00  0.00     0.051 A 
ATOM     15  C   UNL     1     101.346 112.542  93.214  1.00  0.00     0.157 A 
ATOM     16  C   UNL     1     101.738 110.290  94.028  1.00  0.00     0.062 A 
ATOM     17  C   UNL     1     102.056 111.657  94.033  1.00  0.00     0.158 A 
BRANCH  15  18
ATOM     18  O   UNL     1     101.667 113.898  93.221  1.00  0.00    -0.504 OA
ATOM     19  H   UNL     1     100.961 114.611  93.072  1.00  0.00     0.293 HD
ENDBRANCH  15  18
BRANCH  17  20
ATOM     20  O   UNL     1     103.074 112.141  94.853  1.00  0.00    -0.504 OA
ATOM     21  H   UNL     1     102.894 112.835  95.569  1.00  0.00     0.293 HD
ENDBRANCH  17  20
ENDBRANCH   1  12
BRANCH   6  22
ATOM     22  O   UNL     1      98.439 103.565  92.719  1.00  0.00    -0.507 OA
ATOM     23  H   UNL     1      98.391 102.845  92.014  1.00  0.00     0.293 HD
ENDBRANCH   6  22
BRANCH   8  24
ATOM     24  O   UNL     1     102.954 103.058  94.223  1.00  0.00    -0.508 OA
ATOM     25  H   UNL     1     103.707 103.367  94.827  1.00  0.00     0.293 HD
ENDBRANCH   8  24
TORSDOF 5
ENDMDL
MODEL 3
REMARK VINA RESULT:    -4.926      1.718      6.533
REMARK INTER + INTRA:          -6.070
REMARK INTER:                  -5.758
REMARK INTRA:                  -0.312
REMARK UNBOUND:                -0.280
REMARK SMILES O=c1cc(-c2ccc(O)c(O)c2)oc2cc(O)cc(O)c12
REMARK SMILES IDX 4 1 3 2 2 3 1 4 21 5 19 6 18 7 16 8 15 9 14 10 13 11 5 12
REMARK SMILES IDX 6 13 7 14 8 15 12 16 10 17 9 18 11 20 20 22 17 24
REMARK H PARENT 9 19 11 21 20 23 17 25
REMARK Flexibility Score: inf
ROOT
ATOM      1  C   UNL     1     104.036 100.818  92.792  1.00  0.00     0.138 A 
ATOM      2  C   UNL     1     105.244 100.967  92.097  1.00  0.00     0.100 A 
ATOM      3  C   UNL     1     105.700 102.244  91.768  1.00  0.00     0.197 A 
ATOM      4  O   UNL     1     106.817 102.348  91.199  1.00  0.00    -0.289 OA
ATOM      5  C   UNL     1     104.923 103.376  92.108  1.00  0.00     0.107 A 
ATOM      6  C   UNL     1     105.267 104.724  91.788  1.00  0.00     0.134 A 
ATOM      7  C   UNL     1     104.480 105.772  92.279  1.00  0.00     0.093 A 
ATOM      8  C   UNL     1     103.331 105.523  93.027  1.00  0.00     0.123 A 
ATOM      9  C   UNL     1     102.955 104.207  93.301  1.00  0.00     0.094 A 
ATOM     10  C   UNL     1     103.738 103.140  92.855  1.00  0.00     0.146 A 
ATOM     11  O   UNL     1     103.353 101.902  93.149  1.00  0.00    -0.456 OA
ENDROOT
BRANCH   1  12
ATOM     12  C   UNL     1     103.505  99.484  93.168  1.00  0.00     0.021 A 
ATOM     13  C   UNL     1     104.376  98.382  93.220  1.00  0.00     0.016 A 
ATOM     14  C   UNL     1     103.902  97.118  93.578  1.00  0.00     0.051 A 
ATOM     15  C   UNL     1     102.551  96.935  93.900  1.00  0.00     0.157 A 
ATOM     16  C   UNL     1     102.150  99.295  93.506  1.00  0.00     0.062 A 
ATOM     17  C   UNL     1     101.675  98.026  93.867  1.00  0.00     0.158 A 
BRANCH  15  18
ATOM     18  O   UNL     1     102.075  95.675  94.257  1.00  0.00    -0.504 OA
ATOM     19  H   UNL     1     101.709  95.490  95.184  1.00  0.00     0.293 HD
ENDBRANCH  15  18
BRANCH  17  20
ATOM     20  O   UNL     1     100.333  97.843  94.199  1.00  0.00    -0.504 OA
ATOM     21  H   UNL     1      99.834  96.999  93.942  1.00  0.00     0.293 HD
ENDBRANCH  17  20
ENDBRANCH   1  12
BRANCH   6  22
ATOM     22  O   UNL     1     106.348 105.082  90.976  1.00  0.00    -0.507 OA
ATOM     23  H   UNL     1     106.372 105.888  90.370  1.00  0.00     0.293 HD
ENDBRANCH   6  22
BRANCH   8  24
ATOM     24  O   UNL     1     102.564 106.591  93.487  1.00  0.00    -0.508 OA
ATOM     25  H   UNL     1     102.891 107.198  94.230  1.00  0.00     0.293 HD
ENDBRANCH   8  24
TORSDOF 5
ENDMDL
MODEL 4
REMARK VINA RESULT:    -4.772      1.842      3.311
REMARK INTER + INTRA:          -5.889
REMARK INTER:                  -5.602
REMARK INTRA:                  -0.287
REMARK UNBOUND:                -0.280
REMARK SMILES O=c1cc(-c2ccc(O)c(O)c2)oc2cc(O)cc(O)c12
REMARK SMILES IDX 4 1 3 2 2 3 1 4 21 5 19 6 18 7 16 8 15 9 14 10 13 11 5 12
REMARK SMILES IDX 6 13 7 14 8 15 12 16 10 17 9 18 11 20 20 22 17 24
REMARK H PARENT 9 19 11 21 20 23 17 25
REMARK Flexibility Score: inf
ROOT
ATOM      1  C   UNL     1     100.956 101.314  93.411  1.00  0.00     0.138 A 
ATOM      2  C   UNL     1     100.029 100.294  93.666  1.00  0.00     0.100 A 
ATOM      3  C   UNL     1     100.451  98.964  93.674  1.00  0.00     0.197 A 
ATOM      4  O   UNL     1      99.609  98.075  93.967  1.00  0.00    -0.289 OA
ATOM      5  C   UNL     1     101.802  98.653  93.393  1.00  0.00     0.107 A 
ATOM      6  C   UNL     1     102.337  97.331  93.333  1.00  0.00     0.134 A 
ATOM      7  C   UNL     1     103.714  97.151  93.162  1.00  0.00     0.093 A 
ATOM      8  C   UNL     1     104.568  98.240  92.988  1.00  0.00     0.123 A 
ATOM      9  C   UNL     1     104.049  99.535  92.991  1.00  0.00     0.094 A 
ATOM     10  C   UNL     1     102.683  99.749  93.195  1.00  0.00     0.146 A 
ATOM     11  O   UNL     1     102.231 100.999  93.204  1.00  0.00    -0.456 OA
ENDROOT
BRANCH   1  12
ATOM     12  C   UNL     1     100.562 102.746  93.390  1.00  0.00     0.021 A 
ATOM     13  C   UNL     1      99.459 103.148  92.618  1.00  0.00     0.016 A 
ATOM     14  C   UNL     1      99.063 104.488  92.588  1.00  0.00     0.051 A 
ATOM     15  C   UNL     1      99.758 105.446  93.336  1.00  0.00     0.157 A 
ATOM     16  C   UNL     1     101.248 103.713  94.151  1.00  0.00     0.062 A 
ATOM     17  C   UNL     1     100.849 105.058  94.122  1.00  0.00     0.158 A 
BRANCH  15  18
ATOM     18  O   UNL     1      99.367 106.783  93.308  1.00  0.00    -0.504 OA
ATOM     19  H   UNL     1      99.969 107.504  92.924  1.00  0.00     0.293 HD
ENDBRANCH  15  18
BRANCH  17  20
ATOM     20  O   UNL     1     101.532 106.012  94.874  1.00  0.00    -0.504 OA
ATOM     21  H   UNL     1     101.871 106.872  94.458  1.00  0.00     0.293 HD
ENDBRANCH  17  20
ENDBRANCH   1  12
BRANCH   6  22
ATOM     22  O   UNL     1     101.560  96.170  93.411  1.00  0.00    -0.507 OA
ATOM     23  H   UNL     1     100.645  96.061  93.002  1.00  0.00     0.293 HD
ENDBRANCH   6  22
BRANCH   8  24
ATOM     24  O   UNL     1     105.932  98.022  92.806  1.00  0.00    -0.508 OA
ATOM     25  H   UNL     1     106.609  98.765  92.934  1.00  0.00     0.293 HD
ENDBRANCH   8  24
TORSDOF 5
ENDMDL
MODEL 5
REMARK VINA RESULT:    -4.701      4.721      6.442
REMARK INTER + INTRA:          -5.805
REMARK INTER:                  -5.490
REMARK INTRA:                  -0.315
REMARK UNBOUND:                -0.280
REMARK SMILES O=c1cc(-c2ccc(O)c(O)c2)oc2cc(O)cc(O)c12
REMARK SMILES IDX 4 1 3 2 2 3 1 4 21 5 19 6 18 7 16 8 15 9 14 10 13 11 5 12
REMARK SMILES IDX 6 13 7 14 8 15 12 16 10 17 9 18 11 20 20 22 17 24
REMARK H PARENT 9 19 11 21 20 23 17 25
REMARK Flexibility Score: inf
ROOT
ATOM      1  C   UNL     1     105.249 108.109  92.143  1.00  0.00     0.138 A 
ATOM      2  C   UNL     1     105.938 107.632  91.020  1.00  0.00     0.100 A 
ATOM      3  C   UNL     1     105.922 106.269  90.726  1.00  0.00     0.197 A 
ATOM      4  O   UNL     1     106.499 105.879  89.677  1.00  0.00    -0.289 OA
ATOM      5  C   UNL     1     105.238 105.374  91.582  1.00  0.00     0.107 A 
ATOM      6  C   UNL     1     105.188 103.958  91.406  1.00  0.00     0.134 A 
ATOM      7  C   UNL     1     104.382 103.186  92.251  1.00  0.00     0.093 A 
ATOM      8  C   UNL     1     103.673 103.766  93.301  1.00  0.00     0.123 A 
ATOM      9  C   UNL     1     103.757 105.143  93.516  1.00  0.00     0.094 A 
ATOM     10  C   UNL     1     104.525 105.946  92.669  1.00  0.00     0.146 A 
ATOM     11  O   UNL     1     104.568 107.254  92.900  1.00  0.00    -0.456 OA
ENDROOT
BRANCH   1  12
ATOM     12  C   UNL     1     105.233 109.550  92.502  1.00  0.00     0.021 A 
ATOM     13  C   UNL     1     106.151 110.424  91.895  1.00  0.00     0.016 A 
ATOM     14  C   UNL     1     106.151 111.785  92.210  1.00  0.00     0.051 A 
ATOM     15  C   UNL     1     105.227 112.297  93.130  1.00  0.00     0.157 A 
ATOM     16  C   UNL     1     104.297 110.074  93.416  1.00  0.00     0.062 A 
ATOM     17  C   UNL     1     104.297 111.441  93.731  1.00  0.00     0.158 A 
BRANCH  15  18
ATOM     18  O   UNL     1     105.225 113.654  93.447  1.00  0.00    -0.504 OA
ATOM     19  H   UNL     1     105.481 113.983  94.371  1.00  0.00     0.293 HD
ENDBRANCH  15  18
BRANCH  17  20
ATOM     20  O   UNL     1     103.371 111.956  94.638  1.00  0.00    -0.504 OA
ATOM     21  H   UNL     1     103.253 112.954  94.766  1.00  0.00     0.293 HD
ENDBRANCH  17  20
ENDBRANCH   1  12
BRANCH   6  22
ATOM     22  O   UNL     1     105.924 103.265  90.440  1.00  0.00    -0.507 OA
ATOM     23  H   UNL     1     106.814 103.561  90.071  1.00  0.00     0.293 HD
ENDBRANCH   6  22
BRANCH   8  24
ATOM     24  O   UNL     1     102.893 102.964  94.131  1.00  0.00    -0.508 OA
ATOM     25  H   UNL     1     102.868 101.957  94.024  1.00  0.00     0.293 HD
ENDBRANCH   8  24
TORSDOF 5
ENDMDL
MODEL 6
REMARK VINA RESULT:    -4.664      4.838      8.955
REMARK INTER + INTRA:          -5.762
REMARK INTER:                  -5.445
REMARK INTRA:                  -0.317
REMARK UNBOUND:                -0.280
REMARK SMILES O=c1cc(-c2ccc(O)c(O)c2)oc2cc(O)cc(O)c12
REMARK SMILES IDX 4 1 3 2 2 3 1 4 21 5 19 6 18 7 16 8 15 9 14 10 13 11 5 12
REMARK SMILES IDX 6 13 7 14 8 15 12 16 10 17 9 18 11 20 20 22 17 24
REMARK H PARENT 9 19 11 21 20 23 17 25
REMARK Flexibility Score: inf
ROOT
ATOM      1  C   UNL     1     105.209 106.931  92.272  1.00  0.00     0.138 A 
ATOM      2  C   UNL     1     106.334 107.168  91.471  1.00  0.00     0.100 A 
ATOM      3  C   UNL     1     106.779 108.476  91.274  1.00  0.00     0.197 A 
ATOM      4  O   UNL     1     107.828 108.652  90.601  1.00  0.00    -0.289 OA
ATOM      5  C   UNL     1     106.072 109.554  91.857  1.00  0.00     0.107 A 
ATOM      6  C   UNL     1     106.408 110.931  91.692  1.00  0.00     0.134 A 
ATOM      7  C   UNL     1     105.706 111.904  92.413  1.00  0.00     0.093 A 
ATOM      8  C   UNL     1     104.642 111.559  93.244  1.00  0.00     0.123 A 
ATOM      9  C   UNL     1     104.270 110.219  93.373  1.00  0.00     0.094 A 
ATOM     10  C   UNL     1     104.973 109.222  92.694  1.00  0.00     0.146 A 
ATOM     11  O   UNL     1     104.595 107.958  92.853  1.00  0.00    -0.456 OA
ENDROOT
BRANCH   1  12
ATOM     12  C   UNL     1     104.692 105.560  92.514  1.00  0.00     0.021 A 
ATOM     13  C   UNL     1     105.240 104.479  91.803  1.00  0.00     0.016 A 
ATOM     14  C   UNL     1     104.777 103.178  92.019  1.00  0.00     0.051 A 
ATOM     15  C   UNL     1     103.765 102.936  92.957  1.00  0.00     0.157 A 
ATOM     16  C   UNL     1     103.684 105.307  93.466  1.00  0.00     0.062 A 
ATOM     17  C   UNL     1     103.221 104.001  93.683  1.00  0.00     0.158 A 
BRANCH  15  18
ATOM     18  O   UNL     1     103.300 101.641  93.174  1.00  0.00    -0.504 OA
ATOM     19  H   UNL     1     102.313 101.415  93.120  1.00  0.00     0.293 HD
ENDBRANCH  15  18
BRANCH  17  20
ATOM     20  O   UNL     1     102.221 103.755  94.623  1.00  0.00    -0.504 OA
ATOM     21  H   UNL     1     102.432 103.348  95.527  1.00  0.00     0.293 HD
ENDBRANCH  17  20
ENDBRANCH   1  12
BRANCH   6  22
ATOM     22  O   UNL     1     107.399 111.394  90.820  1.00  0.00    -0.507 OA
ATOM     23  H   UNL     1     107.748 112.340  90.794  1.00  0.00     0.293 HD
ENDBRANCH   6  22
BRANCH   8  24
ATOM     24  O   UNL     1     103.956 112.556  93.935  1.00  0.00    -0.508 OA
ATOM     25  H   UNL     1     104.443 113.229  94.516  1.00  0.00     0.293 HD
ENDBRANCH   8  24
TORSDOF 5
ENDMDL
MODEL 7
REMARK VINA RESULT:    -4.605      7.170      8.723
REMARK INTER + INTRA:          -5.692
REMARK INTER:                  -5.376
REMARK INTRA:                  -0.316
REMARK UNBOUND:                -0.280
REMARK SMILES O=c1cc(-c2ccc(O)c(O)c2)oc2cc(O)cc(O)c12
REMARK SMILES IDX 4 1 3 2 2 3 1 4 21 5 19 6 18 7 16 8 15 9 14 10 13 11 5 12
REMARK SMILES IDX 6 13 7 14 8 15 12 16 10 17 9 18 11 20 20 22 17 24
REMARK H PARENT 9 19 11 21 20 23 17 25
REMARK Flexibility Score: inf
ROOT
ATOM      1  C   UNL     1     111.835  99.981  90.877  1.00  0.00     0.138 A 
ATOM      2  C   UNL     1     112.963  99.458  90.232  1.00  0.00     0.100 A 
ATOM      3  C   UNL     1     113.064  98.082  90.022  1.00  0.00     0.197 A 
ATOM      4  O   UNL     1     114.059  97.649  89.385  1.00  0.00    -0.289 OA
ATOM      5  C   UNL     1     112.041  97.223  90.490  1.00  0.00     0.107 A 
ATOM      6  C   UNL     1     112.055  95.801  90.369  1.00  0.00     0.134 A 
ATOM      7  C   UNL     1     110.933  95.064  90.765  1.00  0.00     0.093 A 
ATOM      8  C   UNL     1     109.824  95.688  91.333  1.00  0.00     0.123 A 
ATOM      9  C   UNL     1     109.820  97.073  91.506  1.00  0.00     0.094 A 
ATOM     10  C   UNL     1     110.911  97.840  91.088  1.00  0.00     0.146 A 
ATOM     11  O   UNL     1     110.863  99.157  91.258  1.00  0.00    -0.456 OA
ENDROOT
BRANCH   1  12
ATOM     12  C   UNL     1     111.677 101.436  91.127  1.00  0.00     0.021 A 
ATOM     13  C   UNL     1     112.770 102.295  90.923  1.00  0.00     0.016 A 
ATOM     14  C   UNL     1     112.645 103.669  91.144  1.00  0.00     0.051 A 
ATOM     15  C   UNL     1     111.422 104.209  91.563  1.00  0.00     0.157 A 
ATOM     16  C   UNL     1     110.446 101.987  91.536  1.00  0.00     0.062 A 
ATOM     17  C   UNL     1     110.321 103.367  91.755  1.00  0.00     0.158 A 
BRANCH  15  18
ATOM     18  O   UNL     1     111.294 105.578  91.784  1.00  0.00    -0.504 OA
ATOM     19  H   UNL     1     110.462 106.085  91.503  1.00  0.00     0.293 HD
ENDBRANCH  15  18
BRANCH  17  20
ATOM     20  O   UNL     1     109.102 103.909  92.162  1.00  0.00    -0.504 OA
ATOM     21  H   UNL     1     109.055 104.771  92.691  1.00  0.00     0.293 HD
ENDBRANCH  17  20
ENDBRANCH   1  12
BRANCH   6  22
ATOM     22  O   UNL     1     113.147  95.068  89.893  1.00  0.00    -0.507 OA
ATOM     23  H   UNL     1     113.919  95.457  89.373  1.00  0.00     0.293 HD
ENDBRANCH   6  22
BRANCH   8  24
ATOM     24  O   UNL     1     108.730  94.921  91.729  1.00  0.00    -0.508 OA
ATOM     25  H   UNL     1     108.247  95.098  92.603  1.00  0.00     0.293 HD
ENDBRANCH   8  24
TORSDOF 5
ENDMDL
MODEL 8
REMARK VINA RESULT:    -4.598      8.771      9.290
REMARK INTER + INTRA:          -5.684
REMARK INTER:                  -5.401
REMARK INTRA:                  -0.283
REMARK UNBOUND:                -0.280
REMARK SMILES O=c1cc(-c2ccc(O)c(O)c2)oc2cc(O)cc(O)c12
REMARK SMILES IDX 4 1 3 2 2 3 1 4 21 5 19 6 18 7 16 8 15 9 14 10 13 11 5 12
REMARK SMILES IDX 6 13 7 14 8 15 12 16 10 17 9 18 11 20 20 22 17 24
REMARK H PARENT 9 19 11 21 20 23 17 25
REMARK Flexibility Score: inf
ROOT
ATOM      1  C   UNL     1     108.247 103.580 100.342  1.00  0.00     0.138 A 
ATOM      2  C   UNL     1     109.215 102.577 100.481  1.00  0.00     0.100 A 
ATOM      3  C   UNL     1     108.817 101.253 100.671  1.00  0.00     0.197 A 
ATOM      4  O   UNL     1     109.709 100.367 100.731  1.00  0.00    -0.289 OA
ATOM      5  C   UNL     1     107.440 100.939 100.754  1.00  0.00     0.107 A 
ATOM      6  C   UNL     1     106.917  99.631 100.986  1.00  0.00     0.134 A 
ATOM      7  C   UNL     1     105.534  99.421 100.931  1.00  0.00     0.093 A 
ATOM      8  C   UNL     1     104.652 100.478 100.713  1.00  0.00     0.123 A 
ATOM      9  C   UNL     1     105.150 101.771 100.538  1.00  0.00     0.094 A 
ATOM     10  C   UNL     1     106.526 102.007 100.553  1.00  0.00     0.146 A 
ATOM     11  O   UNL     1     106.960 103.250 100.368  1.00  0.00    -0.456 OA
ENDROOT
BRANCH   1  12
ATOM     12  C   UNL     1     108.615 105.004 100.138  1.00  0.00     0.021 A 
ATOM     13  C   UNL     1     107.834 106.012 100.729  1.00  0.00     0.016 A 
ATOM     14  C   UNL     1     108.164 107.359 100.559  1.00  0.00     0.051 A 
ATOM     15  C   UNL     1     109.286 107.720  99.803  1.00  0.00     0.157 A 
ATOM     16  C   UNL     1     109.751 105.375  99.390  1.00  0.00     0.062 A 
ATOM     17  C   UNL     1     110.083 106.727  99.221  1.00  0.00     0.158 A 
BRANCH  15  18
ATOM     18  O   UNL     1     109.618 109.063  99.630  1.00  0.00    -0.504 OA
ATOM     19  H   UNL     1     109.385 109.761 100.327  1.00  0.00     0.293 HD
ENDBRANCH  15  18
BRANCH  17  20
ATOM     20  O   UNL     1     111.206 107.090  98.479  1.00  0.00    -0.504 OA
ATOM     21  H   UNL     1     111.438 108.062  98.309  1.00  0.00     0.293 HD
ENDBRANCH  17  20
ENDBRANCH   1  12
BRANCH   6  22
ATOM     22  O   UNL     1     107.706  98.519 101.298  1.00  0.00    -0.507 OA
ATOM     23  H   UNL     1     107.717  98.052 102.192  1.00  0.00     0.293 HD
ENDBRANCH   6  22
BRANCH   8  24
ATOM     24  O   UNL     1     103.281 100.234 100.680  1.00  0.00    -0.508 OA
ATOM     25  H   UNL     1     102.751 100.068 101.528  1.00  0.00     0.293 HD
ENDBRANCH   8  24
TORSDOF 5
ENDMDL
MODEL 9
REMARK VINA RESULT:    -4.576      7.772     11.182
REMARK INTER + INTRA:          -5.658
REMARK INTER:                  -5.341
REMARK INTRA:                  -0.317
REMARK UNBOUND:                -0.280
REMARK SMILES O=c1cc(-c2ccc(O)c(O)c2)oc2cc(O)cc(O)c12
REMARK SMILES IDX 4 1 3 2 2 3 1 4 21 5 19 6 18 7 16 8 15 9 14 10 13 11 5 12
REMARK SMILES IDX 6 13 7 14 8 15 12 16 10 17 9 18 11 20 20 22 17 24
REMARK H PARENT 9 19 11 21 20 23 17 25
REMARK Flexibility Score: inf
ROOT
ATOM      1  C   UNL     1     112.238  99.190  90.777  1.00  0.00     0.138 A 
ATOM      2  C   UNL     1     113.544  99.437  90.334  1.00  0.00     0.100 A 
ATOM      3  C   UNL     1     114.006 100.751  90.243  1.00  0.00     0.197 A 
ATOM      4  O   UNL     1     115.203 100.938  89.902  1.00  0.00    -0.289 OA
ATOM      5  C   UNL     1     113.142 101.823  90.567  1.00  0.00     0.107 A 
ATOM      6  C   UNL     1     113.489 103.205  90.473  1.00  0.00     0.134 A 
ATOM      7  C   UNL     1     112.591 104.175  90.932  1.00  0.00     0.093 A 
ATOM      8  C   UNL     1     111.336 103.821  91.425  1.00  0.00     0.123 A 
ATOM      9  C   UNL     1     110.964 102.476  91.473  1.00  0.00     0.094 A 
ATOM     10  C   UNL     1     111.852 101.482  91.054  1.00  0.00     0.146 A 
ATOM     11  O   UNL     1     111.465 100.213  91.128  1.00  0.00    -0.456 OA
ENDROOT
BRANCH   1  12
ATOM     12  C   UNL     1     111.696  97.812  90.893  1.00  0.00     0.021 A 
ATOM     13  C   UNL     1     112.459  96.728  90.428  1.00  0.00     0.016 A 
ATOM     14  C   UNL     1     111.974  95.421  90.532  1.00  0.00     0.051 A 
ATOM     15  C   UNL     1     110.723  95.177  91.112  1.00  0.00     0.157 A 
ATOM     16  C   UNL     1     110.444  97.557  91.487  1.00  0.00     0.062 A 
ATOM     17  C   UNL     1     109.959  96.246  91.594  1.00  0.00     0.158 A 
BRANCH  15  18
ATOM     18  O   UNL     1     110.236  93.875  91.217  1.00  0.00    -0.504 OA
ATOM     19  H   UNL     1     110.432  93.299  92.029  1.00  0.00     0.293 HD
ENDBRANCH  15  18
BRANCH  17  20
ATOM     20  O   UNL     1     108.718  95.998  92.180  1.00  0.00    -0.504 OA
ATOM     21  H   UNL     1     107.894  96.527  91.921  1.00  0.00     0.293 HD
ENDBRANCH  17  20
ENDBRANCH   1  12
BRANCH   6  22
ATOM     22  O   UNL     1     114.684 103.673  89.917  1.00  0.00    -0.507 OA
ATOM     23  H   UNL     1     115.457 103.089  89.637  1.00  0.00     0.293 HD
ENDBRANCH   6  22
BRANCH   8  24
ATOM     24  O   UNL     1     110.462 104.815  91.860  1.00  0.00    -0.508 OA
ATOM     25  H   UNL     1     110.372 105.050  92.842  1.00  0.00     0.293 HD
ENDBRANCH   8  24
TORSDOF 5
ENDMDL
