MODEL 1
REMARK VINA RESULT:    -1.751      0.000      0.000
REMARK INTER + INTRA:          -1.853
REMARK INTER:                  -1.853
REMARK INTRA:                   0.000
REMARK UNBOUND:                 0.000
REMARK SMILES O=c1ccc2cc(O)c(O)cc2o1
REMARK SMILES IDX 4 1 3 2 2 3 1 4 13 5 12 6 11 7 9 8 7 9 6 10 5 11 8 12 10 14
REMARK H PARENT 8 13 10 15
REMARK Flexibility Score: inf
ROOT
ATOM      1  C   UNL     1      23.303  14.672  -0.105  1.00  0.00     0.019 A 
ATOM      2  C   UNL     1      24.453  14.358   0.617  1.00  0.00     0.094 A 
ATOM      3  C   UNL     1      24.353  14.160   1.998  1.00  0.00     0.336 A 
ATOM      4  O   UNL     1      25.380  13.875   2.668  1.00  0.00    -0.246 OA
ATOM      5  O   UNL     1      23.177  14.269   2.611  1.00  0.00    -0.423 OA
ATOM      6  C   UNL     1      22.056  14.568   1.959  1.00  0.00     0.142 A 
ATOM      7  C   UNL     1      20.848  14.670   2.656  1.00  0.00     0.098 A 
ATOM      8  C   UNL     1      19.663  14.983   1.975  1.00  0.00     0.161 A 
ATOM      9  C   UNL     1      19.688  15.197   0.585  1.00  0.00     0.158 A 
ATOM     10  C   UNL     1      20.896  15.094  -0.116  1.00  0.00     0.062 A 
ATOM     11  C   UNL     1      22.079  14.781   0.564  1.00  0.00     0.022 A 
ENDROOT
BRANCH   9  12
ATOM     12  O   UNL     1      18.524  15.510  -0.117  1.00  0.00    -0.504 OA
ATOM     13  H   UNL     1      18.535  16.097  -0.942  1.00  0.00     0.293 HD
ENDBRANCH   9  12
BRANCH   8  14
ATOM     14  O   UNL     1      18.460  15.085   2.675  1.00  0.00    -0.504 OA
ATOM     15  H   UNL     1      18.232  14.452   3.431  1.00  0.00     0.293 HD
ENDBRANCH   8  14
TORSDOF 2
ENDMDL
MODEL 2
REMARK VINA RESULT:    -0.374      1.058      2.249
REMARK INTER + INTRA:          -0.396
REMARK INTER:                  -0.396
REMARK INTRA:                   0.000
REMARK UNBOUND:                 0.000
REMARK SMILES O=c1ccc2cc(O)c(O)cc2o1
REMARK SMILES IDX 4 1 3 2 2 3 1 4 13 5 12 6 11 7 9 8 7 9 6 10 5 11 8 12 10 14
REMARK H PARENT 8 13 10 15
REMARK Flexibility Score: inf
ROOT
ATOM      1  C   UNL     1      23.184  13.875   3.371  1.00  0.00     0.019 A 
ATOM      2  C   UNL     1      24.521  13.961   2.983  1.00  0.00     0.094 A 
ATOM      3  C   UNL     1      24.831  14.532   1.744  1.00  0.00     0.336 A 
ATOM      4  O   UNL     1      26.031  14.619   1.376  1.00  0.00    -0.246 OA
ATOM      5  O   UNL     1      23.864  14.985   0.950  1.00  0.00    -0.423 OA
ATOM      6  C   UNL     1      22.577  14.922   1.282  1.00  0.00     0.142 A 
ATOM      7  C   UNL     1      21.605  15.415   0.408  1.00  0.00     0.098 A 
ATOM      8  C   UNL     1      20.246  15.352   0.752  1.00  0.00     0.161 A 
ATOM      9  C   UNL     1      19.859  14.790   1.982  1.00  0.00     0.158 A 
ATOM     10  C   UNL     1      20.832  14.296   2.861  1.00  0.00     0.062 A 
ATOM     11  C   UNL     1      22.188  14.360   2.517  1.00  0.00     0.022 A 
ENDROOT
BRANCH   9  12
ATOM     12  O   UNL     1      18.517  14.715   2.349  1.00  0.00    -0.504 OA
ATOM     13  H   UNL     1      17.871  14.077   1.899  1.00  0.00     0.293 HD
ENDBRANCH   9  12
BRANCH   8  14
ATOM     14  O   UNL     1      19.279  15.844  -0.125  1.00  0.00    -0.504 OA
ATOM     15  H   UNL     1      18.903  16.780  -0.028  1.00  0.00     0.293 HD
ENDBRANCH   8  14
TORSDOF 2
ENDMDL
MODEL 3
REMARK VINA RESULT:     0.706     14.353     14.870
REMARK INTER + INTRA:           0.747
REMARK INTER:                   0.747
REMARK INTRA:                   0.000
REMARK UNBOUND:                 0.000
REMARK SMILES O=c1ccc2cc(O)c(O)cc2o1
REMARK SMILES IDX 4 1 3 2 2 3 1 4 13 5 12 6 11 7 9 8 7 9 6 10 5 11 8 12 10 14
REMARK H PARENT 8 13 10 15
REMARK Flexibility Score: inf
ROOT
ATOM      1  C   UNL     1      27.497  29.711   2.900  1.00  0.00     0.019 A 
ATOM      2  C   UNL     1      27.838  30.759   2.045  1.00  0.00     0.094 A 
ATOM      3  C   UNL     1      27.808  30.544   0.663  1.00  0.00     0.336 A 
ATOM      4  O   UNL     1      28.111  31.477  -0.125  1.00  0.00    -0.246 OA
ATOM      5  O   UNL     1      27.460  29.356   0.174  1.00  0.00    -0.423 OA
ATOM      6  C   UNL     1      27.129  28.330   0.954  1.00  0.00     0.142 A 
ATOM      7  C   UNL     1      26.771  27.105   0.384  1.00  0.00     0.098 A 
ATOM      8  C   UNL     1      26.421  26.020   1.201  1.00  0.00     0.161 A 
ATOM      9  C   UNL     1      26.429  26.163   2.600  1.00  0.00     0.158 A 
ATOM     10  C   UNL     1      26.785  27.390   3.174  1.00  0.00     0.062 A 
ATOM     11  C   UNL     1      27.135  28.473   2.359  1.00  0.00     0.022 A 
ENDROOT
BRANCH   9  12
ATOM     12  O   UNL     1      26.085  25.101   3.435  1.00  0.00    -0.504 OA
ATOM     13  H   UNL     1      26.485  24.177   3.323  1.00  0.00     0.293 HD
ENDBRANCH   9  12
BRANCH   8  14
ATOM     14  O   UNL     1      26.066  24.799   0.627  1.00  0.00    -0.504 OA
ATOM     15  H   UNL     1      25.183  24.676   0.146  1.00  0.00     0.293 HD
ENDBRANCH   8  14
TORSDOF 2
ENDMDL
MODEL 4
REMARK VINA RESULT:     0.892     14.093     14.648
REMARK INTER + INTRA:           0.944
REMARK INTER:                   0.944
REMARK INTRA:                   0.000
REMARK UNBOUND:                 0.000
REMARK SMILES O=c1ccc2cc(O)c(O)cc2o1
REMARK SMILES IDX 4 1 3 2 2 3 1 4 13 5 12 6 11 7 9 8 7 9 6 10 5 11 8 12 10 14
REMARK H PARENT 8 13 10 15
REMARK Flexibility Score: inf
ROOT
ATOM      1  C   UNL     1      26.375  26.632   3.313  1.00  0.00     0.019 A 
ATOM      2  C   UNL     1      26.108  25.381   2.759  1.00  0.00     0.094 A 
ATOM      3  C   UNL     1      26.225  25.214   1.374  1.00  0.00     0.336 A 
ATOM      4  O   UNL     1      25.989  24.093   0.855  1.00  0.00    -0.246 OA
ATOM      5  O   UNL     1      26.587  26.235   0.601  1.00  0.00    -0.423 OA
ATOM      6  C   UNL     1      26.850  27.445   1.090  1.00  0.00     0.142 A 
ATOM      7  C   UNL     1      27.226  28.480   0.229  1.00  0.00     0.098 A 
ATOM      8  C   UNL     1      27.505  29.757   0.738  1.00  0.00     0.161 A 
ATOM      9  C   UNL     1      27.407  29.998   2.121  1.00  0.00     0.158 A 
ATOM     10  C   UNL     1      27.032  28.963   2.986  1.00  0.00     0.062 A 
ATOM     11  C   UNL     1      26.753  27.688   2.477  1.00  0.00     0.022 A 
ENDROOT
BRANCH   9  12
ATOM     12  O   UNL     1      27.679  31.258   2.653  1.00  0.00    -0.504 OA
ATOM     13  H   UNL     1      28.566  31.477   3.091  1.00  0.00     0.293 HD
ENDBRANCH   9  12
BRANCH   8  14
ATOM     14  O   UNL     1      27.879  30.787  -0.125  1.00  0.00    -0.504 OA
ATOM     15  H   UNL     1      28.684  31.372   0.064  1.00  0.00     0.293 HD
ENDBRANCH   8  14
TORSDOF 2
ENDMDL
