MODEL 1
REMARK VINA RESULT:    -5.126      0.000      0.000
REMARK INTER + INTRA:         -11.901
REMARK INTER:                  -9.622
REMARK INTRA:                  -2.280
REMARK UNBOUND:                -2.280
REMARK SMILES CCCCCCCCC=CCCCCCCCC(=O)[O-]
REMARK SMILES IDX 10 1 9 2 11 3 12 4 13 5 14 6 15 7 16 8 17 9 18 10 19 11
REMARK SMILES IDX 20 12 8 13 7 14 6 15 5 16 4 17 3 18 2 19 1 20
REMARK H PARENT
REMARK Flexibility Score: inf
ROOT
ATOM      1  C   UNL     1      19.701  -5.507  30.214  1.00  0.00    -0.031 C 
ATOM      2  C   UNL     1      19.011  -4.575  30.899  1.00  0.00    -0.031 C 
ENDROOT
BRANCH   1   3
ATOM      3  C   UNL     1      21.175  -5.435  29.891  1.00  0.00     0.027 C 
BRANCH   3   4
ATOM      4  C   UNL     1      22.001  -6.288  30.862  1.00  0.00     0.004 C 
BRANCH   4   5
ATOM      5  C   UNL     1      22.570  -5.453  32.021  1.00  0.00     0.000 C 
BRANCH   5   6
ATOM      6  C   UNL     1      22.120  -5.971  33.397  1.00  0.00     0.000 C 
BRANCH   6   7
ATOM      7  C   UNL     1      21.118  -7.135  33.290  1.00  0.00     0.000 C 
BRANCH   7   8
ATOM      8  C   UNL     1      19.707  -6.762  33.783  1.00  0.00     0.006 C 
BRANCH   8   9
ATOM      9  C   UNL     1      18.580  -7.558  33.104  1.00  0.00     0.053 C 
BRANCH   9  10
ATOM     10  C   UNL     1      17.287  -7.483  33.859  1.00  0.00     0.041 C 
ATOM     11  O   UNL     1      16.711  -6.375  34.018  1.00  0.00    -0.550 OA
ATOM     12  O   UNL     1      16.737  -8.629  34.418  1.00  0.00    -0.550 OA
ENDBRANCH   9  10
ENDBRANCH   8   9
ENDBRANCH   7   8
ENDBRANCH   6   7
ENDBRANCH   5   6
ENDBRANCH   4   5
ENDBRANCH   3   4
ENDBRANCH   1   3
BRANCH   2  13
ATOM     13  C   UNL     1      19.585  -3.275  31.407  1.00  0.00     0.027 C 
BRANCH  13  14
ATOM     14  C   UNL     1      18.950  -2.845  32.739  1.00  0.00     0.004 C 
BRANCH  14  15
ATOM     15  C   UNL     1      19.899  -3.067  33.927  1.00  0.00     0.000 C 
BRANCH  15  16
ATOM     16  C   UNL     1      20.648  -1.789  34.342  1.00  0.00     0.000 C 
BRANCH  16  17
ATOM     17  C   UNL     1      19.937  -0.987  35.451  1.00  0.00    -0.000 C 
BRANCH  17  18
ATOM     18  C   UNL     1      20.638   0.348  35.744  1.00  0.00    -0.000 C 
BRANCH  18  19
ATOM     19  C   UNL     1      22.023   0.397  35.089  1.00  0.00    -0.003 C 
ATOM     20  C   UNL     1      22.305   1.776  34.499  1.00  0.00     0.004 C 
ENDBRANCH  18  19
ENDBRANCH  17  18
ENDBRANCH  16  17
ENDBRANCH  15  16
ENDBRANCH  14  15
ENDBRANCH  13  14
ENDBRANCH   2  13
TORSDOF 15
ENDMDL
MODEL 2
REMARK VINA RESULT:    -5.104      1.939      3.110
REMARK INTER + INTRA:         -11.860
REMARK INTER:                  -9.171
REMARK INTRA:                  -2.688
REMARK UNBOUND:                -2.280
REMARK SMILES CCCCCCCCC=CCCCCCCCC(=O)[O-]
REMARK SMILES IDX 10 1 9 2 11 3 12 4 13 5 14 6 15 7 16 8 17 9 18 10 19 11
REMARK SMILES IDX 20 12 8 13 7 14 6 15 5 16 4 17 3 18 2 19 1 20
REMARK H PARENT
REMARK Flexibility Score: inf
ROOT
ATOM      1  C   UNL     1      21.643  -5.555  34.653  1.00  0.00    -0.031 C 
ATOM      2  C   UNL     1      20.495  -5.131  35.214  1.00  0.00    -0.031 C 
ENDROOT
BRANCH   1   3
ATOM      3  C   UNL     1      22.208  -5.056  33.344  1.00  0.00     0.027 C 
BRANCH   3   4
ATOM      4  C   UNL     1      22.552  -6.221  32.406  1.00  0.00     0.004 C 
BRANCH   4   5
ATOM      5  C   UNL     1      21.732  -6.174  31.106  1.00  0.00     0.000 C 
BRANCH   5   6
ATOM      6  C   UNL     1      20.277  -5.737  31.341  1.00  0.00     0.000 C 
BRANCH   6   7
ATOM      7  C   UNL     1      19.299  -6.925  31.350  1.00  0.00     0.000 C 
BRANCH   7   8
ATOM      8  C   UNL     1      19.234  -7.642  32.712  1.00  0.00     0.006 C 
BRANCH   8   9
ATOM      9  C   UNL     1      18.014  -8.566  32.871  1.00  0.00     0.053 C 
BRANCH   9  10
ATOM     10  C   UNL     1      16.886  -7.907  33.605  1.00  0.00     0.041 C 
ATOM     11  O   UNL     1      15.766  -8.478  33.689  1.00  0.00    -0.550 OA
ATOM     12  O   UNL     1      17.058  -6.649  34.167  1.00  0.00    -0.550 OA
ENDBRANCH   9  10
ENDBRANCH   8   9
ENDBRANCH   7   8
ENDBRANCH   6   7
ENDBRANCH   5   6
ENDBRANCH   4   5
ENDBRANCH   3   4
ENDBRANCH   1   3
BRANCH   2  13
ATOM     13  C   UNL     1      19.552  -4.127  34.597  1.00  0.00     0.027 C 
BRANCH  13  14
ATOM     14  C   UNL     1      19.751  -2.717  35.174  1.00  0.00     0.004 C 
BRANCH  14  15
ATOM     15  C   UNL     1      20.570  -1.819  34.233  1.00  0.00     0.000 C 
BRANCH  15  16
ATOM     16  C   UNL     1      21.500  -0.853  34.986  1.00  0.00     0.000 C 
BRANCH  16  17
ATOM     17  C   UNL     1      22.218  -1.497  36.190  1.00  0.00    -0.000 C 
BRANCH  17  18
ATOM     18  C   UNL     1      23.334  -2.459  35.755  1.00  0.00    -0.000 C 
BRANCH  18  19
ATOM     19  C   UNL     1      23.614  -3.504  36.840  1.00  0.00    -0.003 C 
ATOM     20  C   UNL     1      22.581  -3.427  37.960  1.00  0.00     0.004 C 
ENDBRANCH  18  19
ENDBRANCH  17  18
ENDBRANCH  16  17
ENDBRANCH  15  16
ENDBRANCH  14  15
ENDBRANCH  13  14
ENDBRANCH   2  13
TORSDOF 15
ENDMDL
MODEL 3
REMARK VINA RESULT:    -5.058      3.023      6.100
REMARK INTER + INTRA:         -11.772
REMARK INTER:                  -9.270
REMARK INTRA:                  -2.502
REMARK UNBOUND:                -2.280
REMARK SMILES CCCCCCCCC=CCCCCCCCC(=O)[O-]
REMARK SMILES IDX 10 1 9 2 11 3 12 4 13 5 14 6 15 7 16 8 17 9 18 10 19 11
REMARK SMILES IDX 20 12 8 13 7 14 6 15 5 16 4 17 3 18 2 19 1 20
REMARK H PARENT
REMARK Flexibility Score: inf
ROOT
ATOM      1  C   UNL     1      21.593  -6.022  30.756  1.00  0.00    -0.031 C 
ATOM      2  C   UNL     1      20.666  -5.364  30.035  1.00  0.00    -0.031 C 
ENDROOT
BRANCH   1   3
ATOM      3  C   UNL     1      21.478  -6.352  32.226  1.00  0.00     0.027 C 
BRANCH   3   4
ATOM      4  C   UNL     1      22.306  -5.384  33.081  1.00  0.00     0.004 C 
BRANCH   4   5
ATOM      5  C   UNL     1      21.564  -4.967  34.362  1.00  0.00     0.000 C 
BRANCH   5   6
ATOM      6  C   UNL     1      21.649  -3.455  34.627  1.00  0.00     0.000 C 
BRANCH   6   7
ATOM      7  C   UNL     1      22.841  -3.079  35.525  1.00  0.00     0.000 C 
BRANCH   7   8
ATOM      8  C   UNL     1      22.589  -1.808  36.358  1.00  0.00     0.006 C 
BRANCH   8   9
ATOM      9  C   UNL     1      23.009  -0.507  35.650  1.00  0.00     0.053 C 
BRANCH   9  10
ATOM     10  C   UNL     1      21.838   0.254  35.106  1.00  0.00     0.041 C 
ATOM     11  O   UNL     1      22.023   1.298  34.426  1.00  0.00    -0.550 OA
ATOM     12  O   UNL     1      20.543  -0.167  35.378  1.00  0.00    -0.550 OA
ENDBRANCH   9  10
ENDBRANCH   8   9
ENDBRANCH   7   8
ENDBRANCH   6   7
ENDBRANCH   5   6
ENDBRANCH   4   5
ENDBRANCH   3   4
ENDBRANCH   1   3
BRANCH   2  13
ATOM     13  C   UNL     1      19.381  -4.798  30.590  1.00  0.00     0.027 C 
BRANCH  13  14
ATOM     14  C   UNL     1      19.587  -3.412  31.222  1.00  0.00     0.004 C 
BRANCH  14  15
ATOM     15  C   UNL     1      18.672  -3.193  32.438  1.00  0.00     0.000 C 
BRANCH  15  16
ATOM     16  C   UNL     1      17.751  -4.392  32.718  1.00  0.00     0.000 C 
BRANCH  16  17
ATOM     17  C   UNL     1      17.901  -4.969  34.141  1.00  0.00    -0.000 C 
BRANCH  17  18
ATOM     18  C   UNL     1      17.900  -6.505  34.148  1.00  0.00    -0.000 C 
BRANCH  18  19
ATOM     19  C   UNL     1      17.842  -7.062  32.722  1.00  0.00    -0.003 C 
ATOM     20  C   UNL     1      18.098  -8.567  32.707  1.00  0.00     0.004 C 
ENDBRANCH  18  19
ENDBRANCH  17  18
ENDBRANCH  16  17
ENDBRANCH  15  16
ENDBRANCH  14  15
ENDBRANCH  13  14
ENDBRANCH   2  13
TORSDOF 15
ENDMDL
MODEL 4
REMARK VINA RESULT:    -5.045      3.694      7.069
REMARK INTER + INTRA:         -11.749
REMARK INTER:                  -9.270
REMARK INTRA:                  -2.479
REMARK UNBOUND:                -2.280
REMARK SMILES CCCCCCCCC=CCCCCCCCC(=O)[O-]
REMARK SMILES IDX 10 1 9 2 11 3 12 4 13 5 14 6 15 7 16 8 17 9 18 10 19 11
REMARK SMILES IDX 20 12 8 13 7 14 6 15 5 16 4 17 3 18 2 19 1 20
REMARK H PARENT
REMARK Flexibility Score: inf
ROOT
ATOM      1  C   UNL     1      20.592  -4.814  35.379  1.00  0.00    -0.031 C 
ATOM      2  C   UNL     1      19.831  -4.023  34.600  1.00  0.00    -0.031 C 
ENDROOT
BRANCH   1   3
ATOM      3  C   UNL     1      22.063  -5.091  35.165  1.00  0.00     0.027 C 
BRANCH   3   4
ATOM      4  C   UNL     1      22.834  -5.061  36.491  1.00  0.00     0.004 C 
BRANCH   4   5
ATOM      5  C   UNL     1      23.098  -3.625  36.972  1.00  0.00     0.000 C 
BRANCH   5   6
ATOM      6  C   UNL     1      23.397  -2.661  35.812  1.00  0.00     0.000 C 
BRANCH   6   7
ATOM      7  C   UNL     1      22.976  -1.214  36.124  1.00  0.00     0.000 C 
BRANCH   7   8
ATOM      8  C   UNL     1      21.829  -0.713  35.226  1.00  0.00     0.006 C 
BRANCH   8   9
ATOM      9  C   UNL     1      21.114   0.536  35.769  1.00  0.00     0.053 C 
BRANCH   9  10
ATOM     10  C   UNL     1      21.637   1.805  35.166  1.00  0.00     0.041 C 
ATOM     11  O   UNL     1      21.368   2.915  35.696  1.00  0.00    -0.550 OA
ATOM     12  O   UNL     1      22.392   1.766  34.001  1.00  0.00    -0.550 OA
ENDBRANCH   9  10
ENDBRANCH   8   9
ENDBRANCH   7   8
ENDBRANCH   6   7
ENDBRANCH   5   6
ENDBRANCH   4   5
ENDBRANCH   3   4
ENDBRANCH   1   3
BRANCH   2  13
ATOM     13  C   UNL     1      20.308  -3.325  33.349  1.00  0.00     0.027 C 
BRANCH  13  14
ATOM     14  C   UNL     1      19.177  -3.136  32.326  1.00  0.00     0.004 C 
BRANCH  14  15
ATOM     15  C   UNL     1      19.476  -3.850  30.998  1.00  0.00     0.000 C 
BRANCH  15  16
ATOM     16  C   UNL     1      20.553  -4.940  31.135  1.00  0.00     0.000 C 
BRANCH  16  17
ATOM     17  C   UNL     1      19.981  -6.372  31.180  1.00  0.00    -0.000 C 
BRANCH  17  18
ATOM     18  C   UNL     1      20.292  -7.080  32.508  1.00  0.00    -0.000 C 
BRANCH  18  19
ATOM     19  C   UNL     1      19.002  -7.462  33.243  1.00  0.00    -0.003 C 
ATOM     20  C   UNL     1      17.775  -6.893  32.536  1.00  0.00     0.004 C 
ENDBRANCH  18  19
ENDBRANCH  17  18
ENDBRANCH  16  17
ENDBRANCH  15  16
ENDBRANCH  14  15
ENDBRANCH  13  14
ENDBRANCH   2  13
TORSDOF 15
ENDMDL
MODEL 5
REMARK VINA RESULT:    -5.043      1.239      2.550
REMARK INTER + INTRA:         -11.745
REMARK INTER:                 -10.115
REMARK INTRA:                  -1.630
REMARK UNBOUND:                -2.280
REMARK SMILES CCCCCCCCC=CCCCCCCCC(=O)[O-]
REMARK SMILES IDX 10 1 9 2 11 3 12 4 13 5 14 6 15 7 16 8 17 9 18 10 19 11
REMARK SMILES IDX 20 12 8 13 7 14 6 15 5 16 4 17 3 18 2 19 1 20
REMARK H PARENT
REMARK Flexibility Score: inf
ROOT
ATOM      1  C   UNL     1      22.406  -6.558  32.119  1.00  0.00    -0.031 C 
ATOM      2  C   UNL     1      22.233  -6.087  33.369  1.00  0.00    -0.031 C 
ENDROOT
BRANCH   1   3
ATOM      3  C   UNL     1      22.212  -5.756  30.853  1.00  0.00     0.027 C 
BRANCH   3   4
ATOM      4  C   UNL     1      20.875  -6.093  30.180  1.00  0.00     0.004 C 
BRANCH   4   5
ATOM      5  C   UNL     1      19.766  -5.104  30.575  1.00  0.00     0.000 C 
BRANCH   5   6
ATOM      6  C   UNL     1      18.780  -5.700  31.592  1.00  0.00     0.000 C 
BRANCH   6   7
ATOM      7  C   UNL     1      18.776  -7.239  31.578  1.00  0.00     0.000 C 
BRANCH   7   8
ATOM      8  C   UNL     1      18.855  -7.854  32.988  1.00  0.00     0.006 C 
BRANCH   8   9
ATOM      9  C   UNL     1      17.607  -8.662  33.386  1.00  0.00     0.053 C 
BRANCH   9  10
ATOM     10  C   UNL     1      16.718  -7.916  34.335  1.00  0.00     0.041 C 
ATOM     11  O   UNL     1      15.771  -8.510  34.913  1.00  0.00    -0.550 OA
ATOM     12  O   UNL     1      16.912  -6.558  34.553  1.00  0.00    -0.550 OA
ENDBRANCH   9  10
ENDBRANCH   8   9
ENDBRANCH   7   8
ENDBRANCH   6   7
ENDBRANCH   5   6
ENDBRANCH   4   5
ENDBRANCH   3   4
ENDBRANCH   1   3
BRANCH   2  13
ATOM     13  C   UNL     1      21.760  -4.695  33.710  1.00  0.00     0.027 C 
BRANCH  13  14
ATOM     14  C   UNL     1      22.230  -4.251  35.105  1.00  0.00     0.004 C 
BRANCH  14  15
ATOM     15  C   UNL     1      22.334  -2.722  35.218  1.00  0.00     0.000 C 
BRANCH  15  16
ATOM     16  C   UNL     1      21.039  -2.002  34.806  1.00  0.00     0.000 C 
BRANCH  16  17
ATOM     17  C   UNL     1      20.974  -0.532  35.272  1.00  0.00    -0.000 C 
BRANCH  17  18
ATOM     18  C   UNL     1      22.366   0.113  35.355  1.00  0.00    -0.000 C 
BRANCH  18  19
ATOM     19  C   UNL     1      22.404   1.440  34.588  1.00  0.00    -0.003 C 
ATOM     20  C   UNL     1      21.487   2.476  35.233  1.00  0.00     0.004 C 
ENDBRANCH  18  19
ENDBRANCH  17  18
ENDBRANCH  16  17
ENDBRANCH  15  16
ENDBRANCH  14  15
ENDBRANCH  13  14
ENDBRANCH   2  13
TORSDOF 15
ENDMDL
MODEL 6
REMARK VINA RESULT:    -5.029      3.416      6.935
REMARK INTER + INTRA:         -11.718
REMARK INTER:                  -9.174
REMARK INTRA:                  -2.545
REMARK UNBOUND:                -2.280
REMARK SMILES CCCCCCCCC=CCCCCCCCC(=O)[O-]
REMARK SMILES IDX 10 1 9 2 11 3 12 4 13 5 14 6 15 7 16 8 17 9 18 10 19 11
REMARK SMILES IDX 20 12 8 13 7 14 6 15 5 16 4 17 3 18 2 19 1 20
REMARK H PARENT
REMARK Flexibility Score: inf
ROOT
ATOM      1  C   UNL     1      19.095  -2.809  33.180  1.00  0.00    -0.031 C 
ATOM      2  C   UNL     1      18.875  -3.436  32.009  1.00  0.00    -0.031 C 
ENDROOT
BRANCH   1   3
ATOM      3  C   UNL     1      20.442  -2.330  33.670  1.00  0.00     0.027 C 
BRANCH   3   4
ATOM      4  C   UNL     1      20.989  -3.243  34.776  1.00  0.00     0.004 C 
BRANCH   4   5
ATOM      5  C   UNL     1      22.453  -2.919  35.118  1.00  0.00     0.000 C 
BRANCH   5   6
ATOM      6  C   UNL     1      22.609  -2.307  36.519  1.00  0.00     0.000 C 
BRANCH   6   7
ATOM      7  C   UNL     1      22.105  -0.855  36.588  1.00  0.00     0.000 C 
BRANCH   7   8
ATOM      8  C   UNL     1      22.843   0.085  35.617  1.00  0.00     0.006 C 
BRANCH   8   9
ATOM      9  C   UNL     1      21.910   0.839  34.652  1.00  0.00     0.053 C 
BRANCH   9  10
ATOM     10  C   UNL     1      21.299   2.056  35.277  1.00  0.00     0.041 C 
ATOM     11  O   UNL     1      21.963   3.122  35.368  1.00  0.00    -0.550 OA
ATOM     12  O   UNL     1      20.010   2.005  35.791  1.00  0.00    -0.550 OA
ENDBRANCH   9  10
ENDBRANCH   8   9
ENDBRANCH   7   8
ENDBRANCH   6   7
ENDBRANCH   5   6
ENDBRANCH   4   5
ENDBRANCH   3   4
ENDBRANCH   1   3
BRANCH   2  13
ATOM     13  C   UNL     1      19.947  -3.814  31.016  1.00  0.00     0.027 C 
BRANCH  13  14
ATOM     14  C   UNL     1      19.720  -5.215  30.427  1.00  0.00     0.004 C 
BRANCH  14  15
ATOM     15  C   UNL     1      20.915  -6.147  30.680  1.00  0.00     0.000 C 
BRANCH  15  16
ATOM     16  C   UNL     1      21.862  -5.622  31.773  1.00  0.00     0.000 C 
BRANCH  16  17
ATOM     17  C   UNL     1      21.767  -6.401  33.101  1.00  0.00    -0.000 C 
BRANCH  17  18
ATOM     18  C   UNL     1      20.466  -7.210  33.208  1.00  0.00    -0.000 C 
BRANCH  18  19
ATOM     19  C   UNL     1      19.411  -6.452  34.020  1.00  0.00    -0.003 C 
ATOM     20  C   UNL     1      18.011  -6.681  33.457  1.00  0.00     0.004 C 
ENDBRANCH  18  19
ENDBRANCH  17  18
ENDBRANCH  16  17
ENDBRANCH  15  16
ENDBRANCH  14  15
ENDBRANCH  13  14
ENDBRANCH   2  13
TORSDOF 15
ENDMDL
MODEL 7
REMARK VINA RESULT:    -5.004      1.730      3.195
REMARK INTER + INTRA:         -11.672
REMARK INTER:                  -9.666
REMARK INTRA:                  -2.006
REMARK UNBOUND:                -2.280
REMARK SMILES CCCCCCCCC=CCCCCCCCC(=O)[O-]
REMARK SMILES IDX 10 1 9 2 11 3 12 4 13 5 14 6 15 7 16 8 17 9 18 10 19 11
REMARK SMILES IDX 20 12 8 13 7 14 6 15 5 16 4 17 3 18 2 19 1 20
REMARK H PARENT
REMARK Flexibility Score: inf
ROOT
ATOM      1  C   UNL     1      21.608  -6.354  33.432  1.00  0.00    -0.031 C 
ATOM      2  C   UNL     1      21.271  -5.428  34.350  1.00  0.00    -0.031 C 
ENDROOT
BRANCH   1   3
ATOM      3  C   UNL     1      22.629  -6.159  32.335  1.00  0.00     0.027 C 
BRANCH   3   4
ATOM      4  C   UNL     1      21.954  -6.041  30.962  1.00  0.00     0.004 C 
BRANCH   4   5
ATOM      5  C   UNL     1      20.474  -6.456  31.009  1.00  0.00     0.000 C 
BRANCH   5   6
ATOM      6  C   UNL     1      19.534  -5.340  30.526  1.00  0.00     0.000 C 
BRANCH   6   7
ATOM      7  C   UNL     1      19.803  -3.997  31.227  1.00  0.00     0.000 C 
BRANCH   7   8
ATOM      8  C   UNL     1      18.614  -3.512  32.077  1.00  0.00     0.006 C 
BRANCH   8   9
ATOM      9  C   UNL     1      17.554  -4.597  32.340  1.00  0.00     0.053 C 
BRANCH   9  10
ATOM     10  C   UNL     1      17.709  -5.237  33.687  1.00  0.00     0.041 C 
ATOM     11  O   UNL     1      17.671  -6.491  33.799  1.00  0.00    -0.550 OA
ATOM     12  O   UNL     1      17.861  -4.451  34.822  1.00  0.00    -0.550 OA
ENDBRANCH   9  10
ENDBRANCH   8   9
ENDBRANCH   7   8
ENDBRANCH   6   7
ENDBRANCH   5   6
ENDBRANCH   4   5
ENDBRANCH   3   4
ENDBRANCH   1   3
BRANCH   2  13
ATOM     13  C   UNL     1      21.816  -4.021  34.399  1.00  0.00     0.027 C 
BRANCH  13  14
ATOM     14  C   UNL     1      22.676  -3.778  35.648  1.00  0.00     0.004 C 
BRANCH  14  15
ATOM     15  C   UNL     1      23.374  -2.409  35.610  1.00  0.00     0.000 C 
BRANCH  15  16
ATOM     16  C   UNL     1      23.079  -1.552  36.853  1.00  0.00     0.000 C 
BRANCH  16  17
ATOM     17  C   UNL     1      21.997  -0.477  36.621  1.00  0.00    -0.000 C 
BRANCH  17  18
ATOM     18  C   UNL     1      21.850  -0.112  35.135  1.00  0.00    -0.000 C 
BRANCH  18  19
ATOM     19  C   UNL     1      21.867   1.407  34.938  1.00  0.00    -0.003 C 
ATOM     20  C   UNL     1      23.246   1.891  34.499  1.00  0.00     0.004 C 
ENDBRANCH  18  19
ENDBRANCH  17  18
ENDBRANCH  16  17
ENDBRANCH  15  16
ENDBRANCH  14  15
ENDBRANCH  13  14
ENDBRANCH   2  13
TORSDOF 15
ENDMDL
MODEL 8
REMARK VINA RESULT:    -4.980      2.731      5.783
REMARK INTER + INTRA:         -11.627
REMARK INTER:                  -8.739
REMARK INTRA:                  -2.887
REMARK UNBOUND:                -2.280
REMARK SMILES CCCCCCCCC=CCCCCCCCC(=O)[O-]
REMARK SMILES IDX 10 1 9 2 11 3 12 4 13 5 14 6 15 7 16 8 17 9 18 10 19 11
REMARK SMILES IDX 20 12 8 13 7 14 6 15 5 16 4 17 3 18 2 19 1 20
REMARK H PARENT
REMARK Flexibility Score: inf
ROOT
ATOM      1  C   UNL     1      19.310  -4.943  30.640  1.00  0.00    -0.031 C 
ATOM      2  C   UNL     1      20.202  -5.893  30.300  1.00  0.00    -0.031 C 
ENDROOT
BRANCH   1   3
ATOM      3  C   UNL     1      19.645  -3.499  30.931  1.00  0.00     0.027 C 
BRANCH   3   4
ATOM      4  C   UNL     1      19.242  -3.111  32.360  1.00  0.00     0.004 C 
BRANCH   4   5
ATOM      5  C   UNL     1      20.448  -3.099  33.315  1.00  0.00     0.000 C 
BRANCH   5   6
ATOM      6  C   UNL     1      20.401  -1.926  34.307  1.00  0.00     0.000 C 
BRANCH   6   7
ATOM      7  C   UNL     1      21.621  -1.897  35.244  1.00  0.00     0.000 C 
BRANCH   7   8
ATOM      8  C   UNL     1      22.306  -3.270  35.384  1.00  0.00     0.006 C 
BRANCH   8   9
ATOM      9  C   UNL     1      21.772  -4.115  36.554  1.00  0.00     0.053 C 
BRANCH   9  10
ATOM     10  C   UNL     1      22.733  -5.186  36.974  1.00  0.00     0.041 C 
ATOM     11  O   UNL     1      22.318  -6.352  37.207  1.00  0.00    -0.550 OA
ATOM     12  O   UNL     1      24.079  -4.890  37.142  1.00  0.00    -0.550 OA
ENDBRANCH   9  10
ENDBRANCH   8   9
ENDBRANCH   7   8
ENDBRANCH   6   7
ENDBRANCH   5   6
ENDBRANCH   4   5
ENDBRANCH   3   4
ENDBRANCH   1   3
BRANCH   2  13
ATOM     13  C   UNL     1      21.694  -5.683  30.211  1.00  0.00     0.027 C 
BRANCH  13  14
ATOM     14  C   UNL     1      22.376  -5.791  31.584  1.00  0.00     0.004 C 
BRANCH  14  15
ATOM     15  C   UNL     1      21.854  -6.988  32.395  1.00  0.00     0.000 C 
BRANCH  15  16
ATOM     16  C   UNL     1      21.395  -6.597  33.810  1.00  0.00     0.000 C 
BRANCH  16  17
ATOM     17  C   UNL     1      19.862  -6.566  33.976  1.00  0.00    -0.000 C 
BRANCH  17  18
ATOM     18  C   UNL     1      19.174  -7.728  33.244  1.00  0.00    -0.000 C 
BRANCH  18  19
ATOM     19  C   UNL     1      17.729  -7.371  32.879  1.00  0.00    -0.003 C 
ATOM     20  C   UNL     1      17.289  -6.080  33.566  1.00  0.00     0.004 C 
ENDBRANCH  18  19
ENDBRANCH  17  18
ENDBRANCH  16  17
ENDBRANCH  15  16
ENDBRANCH  14  15
ENDBRANCH  13  14
ENDBRANCH   2  13
TORSDOF 15
ENDMDL
MODEL 9
REMARK VINA RESULT:    -4.939      3.316      5.834
REMARK INTER + INTRA:         -11.550
REMARK INTER:                  -8.546
REMARK INTRA:                  -3.003
REMARK UNBOUND:                -2.280
REMARK SMILES CCCCCCCCC=CCCCCCCCC(=O)[O-]
REMARK SMILES IDX 10 1 9 2 11 3 12 4 13 5 14 6 15 7 16 8 17 9 18 10 19 11
REMARK SMILES IDX 20 12 8 13 7 14 6 15 5 16 4 17 3 18 2 19 1 20
REMARK H PARENT
REMARK Flexibility Score: inf
ROOT
ATOM      1  C   UNL     1      19.633  -7.186  32.909  1.00  0.00    -0.031 C 
ATOM      2  C   UNL     1      19.359  -6.975  31.608  1.00  0.00    -0.031 C 
ENDROOT
BRANCH   1   3
ATOM      3  C   UNL     1      20.971  -6.940  33.568  1.00  0.00     0.027 C 
BRANCH   3   4
ATOM      4  C   UNL     1      20.934  -5.687  34.451  1.00  0.00     0.004 C 
BRANCH   4   5
ATOM      5  C   UNL     1      21.947  -4.626  33.989  1.00  0.00     0.000 C 
BRANCH   5   6
ATOM      6  C   UNL     1      22.191  -3.542  35.052  1.00  0.00     0.000 C 
BRANCH   6   7
ATOM      7  C   UNL     1      20.909  -3.163  35.813  1.00  0.00     0.000 C 
BRANCH   7   8
ATOM      8  C   UNL     1      20.449  -1.719  35.538  1.00  0.00     0.006 C 
BRANCH   8   9
ATOM      9  C   UNL     1      21.440  -0.901  34.691  1.00  0.00     0.053 C 
BRANCH   9  10
ATOM     10  C   UNL     1      21.552   0.521  35.153  1.00  0.00     0.041 C 
ATOM     11  O   UNL     1      22.099   1.383  34.416  1.00  0.00    -0.550 OA
ATOM     12  O   UNL     1      21.087   0.887  36.409  1.00  0.00    -0.550 OA
ENDBRANCH   9  10
ENDBRANCH   8   9
ENDBRANCH   7   8
ENDBRANCH   6   7
ENDBRANCH   5   6
ENDBRANCH   4   5
ENDBRANCH   3   4
ENDBRANCH   1   3
BRANCH   2  13
ATOM     13  C   UNL     1      20.361  -6.511  30.578  1.00  0.00     0.027 C 
BRANCH  13  14
ATOM     14  C   UNL     1      20.453  -4.978  30.512  1.00  0.00     0.004 C 
BRANCH  14  15
ATOM     15  C   UNL     1      19.160  -4.302  30.995  1.00  0.00     0.000 C 
BRANCH  15  16
ATOM     16  C   UNL     1      19.423  -3.067  31.874  1.00  0.00     0.000 C 
BRANCH  16  17
ATOM     17  C   UNL     1      18.276  -2.751  32.856  1.00  0.00    -0.000 C 
BRANCH  17  18
ATOM     18  C   UNL     1      17.331  -3.947  33.050  1.00  0.00    -0.000 C 
BRANCH  18  19
ATOM     19  C   UNL     1      17.429  -4.502  34.475  1.00  0.00    -0.003 C 
ATOM     20  C   UNL     1      16.753  -5.865  34.584  1.00  0.00     0.004 C 
ENDBRANCH  18  19
ENDBRANCH  17  18
ENDBRANCH  16  17
ENDBRANCH  15  16
ENDBRANCH  14  15
ENDBRANCH  13  14
ENDBRANCH   2  13
TORSDOF 15
ENDMDL
