MODEL 1
REMARK VINA RESULT:    -1.771      0.000      0.000
REMARK INTER + INTRA:          -4.920
REMARK INTER:                  -3.013
REMARK INTRA:                  -1.906
REMARK UNBOUND:                -1.906
REMARK SMILES CCCCCCCCCCCCCC(=O)[O-]
REMARK SMILES IDX 8 1 9 2 10 3 11 4 12 5 13 6 14 7 15 8 16 9 7 10 6 11 5 12
REMARK SMILES IDX 4 13 3 14 2 15 1 16
REMARK H PARENT
REMARK Flexibility Score: inf
ROOT
ATOM      1  C   UNL     1     116.770  16.669  24.515  1.00  0.00     0.000 C 
ENDROOT
BRANCH   1   2
ATOM      2  C   UNL     1     115.827  15.460  24.389  1.00  0.00     0.000 C 
BRANCH   2   3
ATOM      3  C   UNL     1     116.579  14.120  24.301  1.00  0.00     0.000 C 
BRANCH   3   4
ATOM      4  C   UNL     1     116.016  13.001  25.196  1.00  0.00     0.000 C 
BRANCH   4   5
ATOM      5  C   UNL     1     114.908  13.489  26.141  1.00  0.00     0.006 C 
BRANCH   5   6
ATOM      6  C   UNL     1     114.177  12.307  26.785  1.00  0.00     0.053 C 
BRANCH   6   7
ATOM      7  C   UNL     1     114.445  12.265  28.256  1.00  0.00     0.041 C 
ATOM      8  O   UNL     1     113.493  12.357  29.077  1.00  0.00    -0.550 OA
ATOM      9  O   UNL     1     115.739  12.075  28.723  1.00  0.00    -0.550 OA
ENDBRANCH   6   7
ENDBRANCH   5   6
ENDBRANCH   4   5
ENDBRANCH   3   4
ENDBRANCH   2   3
ENDBRANCH   1   2
BRANCH   1  10
ATOM     10  C   UNL     1     118.217  16.335  24.120  1.00  0.00     0.000 C 
BRANCH  10  11
ATOM     11  C   UNL     1     119.216  16.604  25.258  1.00  0.00    -0.000 C 
BRANCH  11  12
ATOM     12  C   UNL     1     118.540  17.172  26.517  1.00  0.00    -0.000 C 
BRANCH  12  13
ATOM     13  C   UNL     1     118.713  16.264  27.744  1.00  0.00    -0.000 C 
BRANCH  13  14
ATOM     14  C   UNL     1     117.588  15.220  27.816  1.00  0.00    -0.000 C 
BRANCH  14  15
ATOM     15  C   UNL     1     116.492  15.598  28.824  1.00  0.00    -0.003 C 
ATOM     16  C   UNL     1     115.381  16.443  28.200  1.00  0.00     0.004 C 
ENDBRANCH  14  15
ENDBRANCH  13  14
ENDBRANCH  12  13
ENDBRANCH  11  12
ENDBRANCH  10  11
ENDBRANCH   1  10
TORSDOF 12
ENDMDL
MODEL 2
REMARK VINA RESULT:    -1.697      1.858      4.560
REMARK INTER + INTRA:          -4.793
REMARK INTER:                  -2.489
REMARK INTRA:                  -2.304
REMARK UNBOUND:                -1.906
REMARK SMILES CCCCCCCCCCCCCC(=O)[O-]
REMARK SMILES IDX 8 1 9 2 10 3 11 4 12 5 13 6 14 7 15 8 16 9 7 10 6 11 5 12
REMARK SMILES IDX 4 13 3 14 2 15 1 16
REMARK H PARENT
REMARK Flexibility Score: inf
ROOT
ATOM      1  C   UNL     1     115.562  16.705  23.588  1.00  0.00     0.000 C 
ENDROOT
BRANCH   1   2
ATOM      2  C   UNL     1     116.730  15.990  22.886  1.00  0.00     0.000 C 
BRANCH   2   3
ATOM      3  C   UNL     1     117.990  15.899  23.765  1.00  0.00     0.000 C 
BRANCH   3   4
ATOM      4  C   UNL     1     117.974  16.796  25.017  1.00  0.00     0.000 C 
BRANCH   4   5
ATOM      5  C   UNL     1     118.016  15.997  26.328  1.00  0.00     0.006 C 
BRANCH   5   6
ATOM      6  C   UNL     1     116.857  16.392  27.248  1.00  0.00     0.053 C 
BRANCH   6   7
ATOM      7  C   UNL     1     116.497  15.257  28.154  1.00  0.00     0.041 C 
ATOM      8  O   UNL     1     115.314  15.127  28.568  1.00  0.00    -0.550 OA
ATOM      9  O   UNL     1     117.455  14.314  28.502  1.00  0.00    -0.550 OA
ENDBRANCH   6   7
ENDBRANCH   5   6
ENDBRANCH   4   5
ENDBRANCH   3   4
ENDBRANCH   2   3
ENDBRANCH   1   2
BRANCH   1  10
ATOM     10  C   UNL     1     114.315  15.818  23.717  1.00  0.00     0.000 C 
BRANCH  10  11
ATOM     11  C   UNL     1     114.261  15.066  25.058  1.00  0.00    -0.000 C 
BRANCH  11  12
ATOM     12  C   UNL     1     114.467  13.552  24.896  1.00  0.00    -0.000 C 
BRANCH  12  13
ATOM     13  C   UNL     1     115.894  13.106  25.247  1.00  0.00    -0.000 C 
BRANCH  13  14
ATOM     14  C   UNL     1     116.534  12.345  24.076  1.00  0.00    -0.000 C 
BRANCH  14  15
ATOM     15  C   UNL     1     115.682  12.396  22.799  1.00  0.00    -0.003 C 
ATOM     16  C   UNL     1     116.524  12.529  21.530  1.00  0.00     0.004 C 
ENDBRANCH  14  15
ENDBRANCH  13  14
ENDBRANCH  12  13
ENDBRANCH  11  12
ENDBRANCH  10  11
ENDBRANCH   1  10
TORSDOF 12
ENDMDL
MODEL 3
REMARK VINA RESULT:    -1.689      2.905      3.750
REMARK INTER + INTRA:          -4.781
REMARK INTER:                  -3.004
REMARK INTRA:                  -1.777
REMARK UNBOUND:                -1.906
REMARK SMILES CCCCCCCCCCCCCC(=O)[O-]
REMARK SMILES IDX 8 1 9 2 10 3 11 4 12 5 13 6 14 7 15 8 16 9 7 10 6 11 5 12
REMARK SMILES IDX 4 13 3 14 2 15 1 16
REMARK H PARENT
REMARK Flexibility Score: inf
ROOT
ATOM      1  C   UNL     1     116.702  16.695  24.689  1.00  0.00     0.000 C 
ENDROOT
BRANCH   1   2
ATOM      2  C   UNL     1     115.487  15.761  24.546  1.00  0.00     0.000 C 
BRANCH   2   3
ATOM      3  C   UNL     1     115.416  14.699  25.657  1.00  0.00     0.000 C 
BRANCH   3   4
ATOM      4  C   UNL     1     115.115  13.269  25.169  1.00  0.00     0.000 C 
BRANCH   4   5
ATOM      5  C   UNL     1     116.332  12.587  24.527  1.00  0.00     0.006 C 
BRANCH   5   6
ATOM      6  C   UNL     1     116.000  12.087  23.118  1.00  0.00     0.053 C 
BRANCH   6   7
ATOM      7  C   UNL     1     116.526  13.037  22.089  1.00  0.00     0.041 C 
ATOM      8  O   UNL     1     117.481  13.810  22.368  1.00  0.00    -0.550 OA
ATOM      9  O   UNL     1     115.995  13.036  20.806  1.00  0.00    -0.550 OA
ENDBRANCH   6   7
ENDBRANCH   5   6
ENDBRANCH   4   5
ENDBRANCH   3   4
ENDBRANCH   2   3
ENDBRANCH   1   2
BRANCH   1  10
ATOM     10  C   UNL     1     117.944  15.973  25.234  1.00  0.00     0.000 C 
BRANCH  10  11
ATOM     11  C   UNL     1     118.618  16.745  26.381  1.00  0.00    -0.000 C 
BRANCH  11  12
ATOM     12  C   UNL     1     118.484  16.029  27.734  1.00  0.00    -0.000 C 
BRANCH  12  13
ATOM     13  C   UNL     1     117.303  16.551  28.568  1.00  0.00    -0.000 C 
BRANCH  13  14
ATOM     14  C   UNL     1     116.450  15.387  29.097  1.00  0.00    -0.000 C 
BRANCH  14  15
ATOM     15  C   UNL     1     117.108  14.018  28.869  1.00  0.00    -0.003 C 
ATOM     16  C   UNL     1     116.112  12.862  28.955  1.00  0.00     0.004 C 
ENDBRANCH  14  15
ENDBRANCH  13  14
ENDBRANCH  12  13
ENDBRANCH  11  12
ENDBRANCH  10  11
ENDBRANCH   1  10
TORSDOF 12
ENDMDL
MODEL 4
REMARK VINA RESULT:    -1.659      3.365      5.566
REMARK INTER + INTRA:          -4.729
REMARK INTER:                  -3.078
REMARK INTRA:                  -1.651
REMARK UNBOUND:                -1.906
REMARK SMILES CCCCCCCCCCCCCC(=O)[O-]
REMARK SMILES IDX 8 1 9 2 10 3 11 4 12 5 13 6 14 7 15 8 16 9 7 10 6 11 5 12
REMARK SMILES IDX 4 13 3 14 2 15 1 16
REMARK H PARENT
REMARK Flexibility Score: inf
ROOT
ATOM      1  C   UNL     1     118.509  16.009  27.596  1.00  0.00     0.000 C 
ENDROOT
BRANCH   1   2
ATOM      2  C   UNL     1     118.612  16.425  26.118  1.00  0.00     0.000 C 
BRANCH   2   3
ATOM      3  C   UNL     1     117.478  17.369  25.682  1.00  0.00     0.000 C 
BRANCH   3   4
ATOM      4  C   UNL     1     116.582  16.828  24.552  1.00  0.00     0.000 C 
BRANCH   4   5
ATOM      5  C   UNL     1     117.225  16.958  23.164  1.00  0.00     0.006 C 
BRANCH   5   6
ATOM      6  C   UNL     1     117.394  15.584  22.508  1.00  0.00     0.053 C 
BRANCH   6   7
ATOM      7  C   UNL     1     118.784  15.425  21.976  1.00  0.00     0.041 C 
ATOM      8  O   UNL     1     118.978  14.851  20.871  1.00  0.00    -0.550 OA
ATOM      9  O   UNL     1     119.861  15.953  22.676  1.00  0.00    -0.550 OA
ENDBRANCH   6   7
ENDBRANCH   5   6
ENDBRANCH   4   5
ENDBRANCH   3   4
ENDBRANCH   2   3
ENDBRANCH   1   2
BRANCH   1  10
ATOM     10  C   UNL     1     117.239  16.544  28.276  1.00  0.00     0.000 C 
BRANCH  10  11
ATOM     11  C   UNL     1     116.343  15.419  28.820  1.00  0.00    -0.000 C 
BRANCH  11  12
ATOM     12  C   UNL     1     116.734  14.036  28.277  1.00  0.00    -0.000 C 
BRANCH  12  13
ATOM     13  C   UNL     1     115.527  13.235  27.764  1.00  0.00    -0.000 C 
BRANCH  13  14
ATOM     14  C   UNL     1     115.175  13.638  26.323  1.00  0.00    -0.000 C 
BRANCH  14  15
ATOM     15  C   UNL     1     116.337  13.409  25.344  1.00  0.00    -0.003 C 
ATOM     16  C   UNL     1     116.096  12.226  24.407  1.00  0.00     0.004 C 
ENDBRANCH  14  15
ENDBRANCH  13  14
ENDBRANCH  12  13
ENDBRANCH  11  12
ENDBRANCH  10  11
ENDBRANCH   1  10
TORSDOF 12
ENDMDL
MODEL 5
REMARK VINA RESULT:    -1.649      2.455      4.607
REMARK INTER + INTRA:          -4.711
REMARK INTER:                  -3.292
REMARK INTRA:                  -1.419
REMARK UNBOUND:                -1.906
REMARK SMILES CCCCCCCCCCCCCC(=O)[O-]
REMARK SMILES IDX 8 1 9 2 10 3 11 4 12 5 13 6 14 7 15 8 16 9 7 10 6 11 5 12
REMARK SMILES IDX 4 13 3 14 2 15 1 16
REMARK H PARENT
REMARK Flexibility Score: inf
ROOT
ATOM      1  C   UNL     1     117.060  14.789  22.544  1.00  0.00     0.000 C 
ENDROOT
BRANCH   1   2
ATOM      2  C   UNL     1     118.512  15.246  22.321  1.00  0.00     0.000 C 
BRANCH   2   3
ATOM      3  C   UNL     1     118.958  16.331  23.317  1.00  0.00     0.000 C 
BRANCH   3   4
ATOM      4  C   UNL     1     117.816  17.187  23.897  1.00  0.00     0.000 C 
BRANCH   4   5
ATOM      5  C   UNL     1     118.075  17.630  25.344  1.00  0.00     0.006 C 
BRANCH   5   6
ATOM      6  C   UNL     1     118.832  16.549  26.121  1.00  0.00     0.053 C 
BRANCH   6   7
ATOM      7  C   UNL     1     118.722  16.790  27.594  1.00  0.00     0.041 C 
ATOM      8  O   UNL     1     118.731  15.819  28.397  1.00  0.00    -0.550 OA
ATOM      9  O   UNL     1     118.659  18.087  28.084  1.00  0.00    -0.550 OA
ENDBRANCH   6   7
ENDBRANCH   5   6
ENDBRANCH   4   5
ENDBRANCH   3   4
ENDBRANCH   2   3
ENDBRANCH   1   2
BRANCH   1  10
ATOM     10  C   UNL     1     116.943  13.275  22.777  1.00  0.00     0.000 C 
BRANCH  10  11
ATOM     11  C   UNL     1     116.273  12.934  24.119  1.00  0.00    -0.000 C 
BRANCH  11  12
ATOM     12  C   UNL     1     115.954  14.184  24.954  1.00  0.00    -0.000 C 
BRANCH  12  13
ATOM     13  C   UNL     1     116.373  14.038  26.425  1.00  0.00    -0.000 C 
BRANCH  13  14
ATOM     14  C   UNL     1     115.234  14.462  27.365  1.00  0.00    -0.000 C 
BRANCH  14  15
ATOM     15  C   UNL     1     115.350  13.830  28.760  1.00  0.00    -0.003 C 
ATOM     16  C   UNL     1     115.524  12.312  28.709  1.00  0.00     0.004 C 
ENDBRANCH  14  15
ENDBRANCH  13  14
ENDBRANCH  12  13
ENDBRANCH  11  12
ENDBRANCH  10  11
ENDBRANCH   1  10
TORSDOF 12
ENDMDL
MODEL 6
REMARK VINA RESULT:    -1.637      2.523      4.795
REMARK INTER + INTRA:          -4.692
REMARK INTER:                  -2.653
REMARK INTRA:                  -2.039
REMARK UNBOUND:                -1.906
REMARK SMILES CCCCCCCCCCCCCC(=O)[O-]
REMARK SMILES IDX 8 1 9 2 10 3 11 4 12 5 13 6 14 7 15 8 16 9 7 10 6 11 5 12
REMARK SMILES IDX 4 13 3 14 2 15 1 16
REMARK H PARENT
REMARK Flexibility Score: inf
ROOT
ATOM      1  C   UNL     1     117.285  14.992  22.410  1.00  0.00     0.000 C 
ENDROOT
BRANCH   1   2
ATOM      2  C   UNL     1     118.779  15.287  22.188  1.00  0.00     0.000 C 
BRANCH   2   3
ATOM      3  C   UNL     1     119.347  16.293  23.206  1.00  0.00     0.000 C 
BRANCH   3   4
ATOM      4  C   UNL     1     118.327  17.313  23.747  1.00  0.00     0.000 C 
BRANCH   4   5
ATOM      5  C   UNL     1     118.569  17.678  25.219  1.00  0.00     0.006 C 
BRANCH   5   6
ATOM      6  C   UNL     1     119.101  16.474  26.001  1.00  0.00     0.053 C 
BRANCH   6   7
ATOM      7  C   UNL     1     118.655  16.538  27.428  1.00  0.00     0.041 C 
ATOM      8  O   UNL     1     118.282  15.493  28.023  1.00  0.00    -0.550 OA
ATOM      9  O   UNL     1     118.698  17.743  28.117  1.00  0.00    -0.550 OA
ENDBRANCH   6   7
ENDBRANCH   5   6
ENDBRANCH   4   5
ENDBRANCH   3   4
ENDBRANCH   2   3
ENDBRANCH   1   2
BRANCH   1  10
ATOM     10  C   UNL     1     117.004  13.499  22.646  1.00  0.00     0.000 C 
BRANCH  10  11
ATOM     11  C   UNL     1     116.213  13.245  23.939  1.00  0.00    -0.000 C 
BRANCH  11  12
ATOM     12  C   UNL     1     116.578  14.232  25.060  1.00  0.00    -0.000 C 
BRANCH  12  13
ATOM     13  C   UNL     1     115.357  14.680  25.878  1.00  0.00    -0.000 C 
BRANCH  13  14
ATOM     14  C   UNL     1     115.183  16.205  25.812  1.00  0.00    -0.000 C 
BRANCH  14  15
ATOM     15  C   UNL     1     114.681  16.685  24.441  1.00  0.00    -0.003 C 
ATOM     16  C   UNL     1     113.299  16.133  24.092  1.00  0.00     0.004 C 
ENDBRANCH  14  15
ENDBRANCH  13  14
ENDBRANCH  12  13
ENDBRANCH  11  12
ENDBRANCH  10  11
ENDBRANCH   1  10
TORSDOF 12
ENDMDL
MODEL 7
REMARK VINA RESULT:    -1.608      2.382      3.479
REMARK INTER + INTRA:          -4.643
REMARK INTER:                  -2.666
REMARK INTRA:                  -1.977
REMARK UNBOUND:                -1.906
REMARK SMILES CCCCCCCCCCCCCC(=O)[O-]
REMARK SMILES IDX 8 1 9 2 10 3 11 4 12 5 13 6 14 7 15 8 16 9 7 10 6 11 5 12
REMARK SMILES IDX 4 13 3 14 2 15 1 16
REMARK H PARENT
REMARK Flexibility Score: inf
ROOT
ATOM      1  C   UNL     1     117.309  15.535  21.000  1.00  0.00     0.000 C 
ENDROOT
BRANCH   1   2
ATOM      2  C   UNL     1     116.462  14.251  21.031  1.00  0.00     0.000 C 
BRANCH   2   3
ATOM      3  C   UNL     1     117.316  12.971  21.049  1.00  0.00     0.000 C 
BRANCH   3   4
ATOM      4  C   UNL     1     116.874  11.911  22.077  1.00  0.00     0.000 C 
BRANCH   4   5
ATOM      5  C   UNL     1     115.787  12.422  23.034  1.00  0.00     0.006 C 
BRANCH   5   6
ATOM      6  C   UNL     1     116.343  12.598  24.450  1.00  0.00     0.053 C 
BRANCH   6   7
ATOM      7  C   UNL     1     115.236  12.560  25.456  1.00  0.00     0.041 C 
ATOM      8  O   UNL     1     114.077  12.208  25.109  1.00  0.00    -0.550 OA
ATOM      9  O   UNL     1     115.493  12.865  26.785  1.00  0.00    -0.550 OA
ENDBRANCH   6   7
ENDBRANCH   5   6
ENDBRANCH   4   5
ENDBRANCH   3   4
ENDBRANCH   2   3
ENDBRANCH   1   2
BRANCH   1  10
ATOM     10  C   UNL     1     118.806  15.263  21.217  1.00  0.00     0.000 C 
BRANCH  10  11
ATOM     11  C   UNL     1     119.300  15.747  22.591  1.00  0.00    -0.000 C 
BRANCH  11  12
ATOM     12  C   UNL     1     118.265  16.622  23.317  1.00  0.00    -0.000 C 
BRANCH  12  13
ATOM     13  C   UNL     1     118.088  16.231  24.792  1.00  0.00    -0.000 C 
BRANCH  13  14
ATOM     14  C   UNL     1     116.599  16.118  25.154  1.00  0.00    -0.000 C 
BRANCH  14  15
ATOM     15  C   UNL     1     115.681  16.725  24.082  1.00  0.00    -0.003 C 
ATOM     16  C   UNL     1     114.474  15.841  23.768  1.00  0.00     0.004 C 
ENDBRANCH  14  15
ENDBRANCH  13  14
ENDBRANCH  12  13
ENDBRANCH  11  12
ENDBRANCH  10  11
ENDBRANCH   1  10
TORSDOF 12
ENDMDL
MODEL 8
REMARK VINA RESULT:    -1.605      2.831      5.563
REMARK INTER + INTRA:          -4.638
REMARK INTER:                  -3.270
REMARK INTRA:                  -1.368
REMARK UNBOUND:                -1.906
REMARK SMILES CCCCCCCCCCCCCC(=O)[O-]
REMARK SMILES IDX 8 1 9 2 10 3 11 4 12 5 13 6 14 7 15 8 16 9 7 10 6 11 5 12
REMARK SMILES IDX 4 13 3 14 2 15 1 16
REMARK H PARENT
REMARK Flexibility Score: inf
ROOT
ATOM      1  C   UNL     1     116.141  11.900  24.246  1.00  0.00     0.000 C 
ENDROOT
BRANCH   1   2
ATOM      2  C   UNL     1     115.179  12.421  25.328  1.00  0.00     0.000 C 
BRANCH   2   3
ATOM      3  C   UNL     1     115.240  13.949  25.496  1.00  0.00     0.000 C 
BRANCH   3   4
ATOM      4  C   UNL     1     116.657  14.551  25.445  1.00  0.00     0.000 C 
BRANCH   4   5
ATOM      5  C   UNL     1     117.012  15.355  26.705  1.00  0.00     0.006 C 
BRANCH   5   6
ATOM      6  C   UNL     1     118.193  16.294  26.440  1.00  0.00     0.053 C 
BRANCH   6   7
ATOM      7  C   UNL     1     118.726  16.841  27.727  1.00  0.00     0.041 C 
ATOM      8  O   UNL     1     118.923  18.078  27.856  1.00  0.00    -0.550 OA
ATOM      9  O   UNL     1     118.959  15.991  28.800  1.00  0.00    -0.550 OA
ENDBRANCH   6   7
ENDBRANCH   5   6
ENDBRANCH   4   5
ENDBRANCH   3   4
ENDBRANCH   2   3
ENDBRANCH   1   2
BRANCH   1  10
ATOM     10  C   UNL     1     115.503  11.875  22.848  1.00  0.00     0.000 C 
BRANCH  10  11
ATOM     11  C   UNL     1     116.509  12.213  21.735  1.00  0.00    -0.000 C 
BRANCH  11  12
ATOM     12  C   UNL     1     117.348  13.461  22.055  1.00  0.00    -0.000 C 
BRANCH  12  13
ATOM     13  C   UNL     1     116.678  14.762  21.587  1.00  0.00    -0.000 C 
BRANCH  13  14
ATOM     14  C   UNL     1     117.504  15.987  22.011  1.00  0.00    -0.000 C 
BRANCH  14  15
ATOM     15  C   UNL     1     118.824  15.602  22.696  1.00  0.00    -0.003 C 
ATOM     16  C   UNL     1     120.053  16.080  21.922  1.00  0.00     0.004 C 
ENDBRANCH  14  15
ENDBRANCH  13  14
ENDBRANCH  12  13
ENDBRANCH  11  12
ENDBRANCH  10  11
ENDBRANCH   1  10
TORSDOF 12
ENDMDL
MODEL 9
REMARK VINA RESULT:    -1.583     19.449     20.931
REMARK INTER + INTRA:          -4.599
REMARK INTER:                  -2.392
REMARK INTRA:                  -2.207
REMARK UNBOUND:                -1.906
REMARK SMILES CCCCCCCCCCCCCC(=O)[O-]
REMARK SMILES IDX 8 1 9 2 10 3 11 4 12 5 13 6 14 7 15 8 16 9 7 10 6 11 5 12
REMARK SMILES IDX 4 13 3 14 2 15 1 16
REMARK H PARENT
REMARK Flexibility Score: inf
ROOT
ATOM      1  C   UNL     1     104.654  28.128  23.302  1.00  0.00     0.000 C 
ENDROOT
BRANCH   1   2
ATOM      2  C   UNL     1     103.363  27.364  22.959  1.00  0.00     0.000 C 
BRANCH   2   3
ATOM      3  C   UNL     1     102.733  27.821  21.631  1.00  0.00     0.000 C 
BRANCH   3   4
ATOM      4  C   UNL     1     101.842  29.074  21.734  1.00  0.00     0.000 C 
BRANCH   4   5
ATOM      5  C   UNL     1     101.091  29.167  23.070  1.00  0.00     0.006 C 
BRANCH   5   6
ATOM      6  C   UNL     1     100.875  30.627  23.477  1.00  0.00     0.053 C 
BRANCH   6   7
ATOM      7  C   UNL     1     101.304  30.845  24.894  1.00  0.00     0.041 C 
ATOM      8  O   UNL     1     101.819  31.942  25.238  1.00  0.00    -0.550 OA
ATOM      9  O   UNL     1     101.092  29.856  25.845  1.00  0.00    -0.550 OA
ENDBRANCH   6   7
ENDBRANCH   5   6
ENDBRANCH   4   5
ENDBRANCH   3   4
ENDBRANCH   2   3
ENDBRANCH   1   2
BRANCH   1  10
ATOM     10  C   UNL     1     104.497  29.036  24.532  1.00  0.00     0.000 C 
BRANCH  10  11
ATOM     11  C   UNL     1     104.975  30.474  24.270  1.00  0.00    -0.000 C 
BRANCH  11  12
ATOM     12  C   UNL     1     104.980  30.831  22.775  1.00  0.00    -0.000 C 
BRANCH  12  13
ATOM     13  C   UNL     1     104.075  32.029  22.448  1.00  0.00    -0.000 C 
BRANCH  13  14
ATOM     14  C   UNL     1     103.801  32.113  20.939  1.00  0.00    -0.000 C 
BRANCH  14  15
ATOM     15  C   UNL     1     104.814  31.312  20.107  1.00  0.00    -0.003 C 
ATOM     16  C   UNL     1     104.150  30.256  19.224  1.00  0.00     0.004 C 
ENDBRANCH  14  15
ENDBRANCH  13  14
ENDBRANCH  12  13
ENDBRANCH  11  12
ENDBRANCH  10  11
ENDBRANCH   1  10
TORSDOF 12
ENDMDL
