MODEL 1
REMARK VINA RESULT:    -5.234      0.000      0.000
REMARK INTER + INTRA:         -13.088
REMARK INTER:                 -11.353
REMARK INTRA:                  -1.735
REMARK UNBOUND:                -1.735
REMARK SMILES CCCCCCCCCCCCCCCCCCCCCC(=O)[O-]
REMARK SMILES IDX 12 1 11 2 10 3 9 4 8 5 7 6 6 7 5 8 4 9 3 10 2 11 1 12 13 13
REMARK SMILES IDX 14 14 15 15 16 16 17 17 18 18 19 19 20 20 21 21 22 22 23 23
REMARK SMILES IDX 24 24
REMARK H PARENT
REMARK Flexibility Score: inf
ROOT
ATOM      1  C   UNL     1      -8.589  36.623   5.436  1.00  0.00     0.000 C 
ENDROOT
BRANCH   1   2
ATOM      2  C   UNL     1      -8.561  35.251   6.134  1.00  0.00     0.000 C 
BRANCH   2   3
ATOM      3  C   UNL     1      -9.169  34.136   5.268  1.00  0.00     0.000 C 
BRANCH   3   4
ATOM      4  C   UNL     1      -8.236  32.923   5.129  1.00  0.00    -0.000 C 
BRANCH   4   5
ATOM      5  C   UNL     1      -6.876  33.199   5.779  1.00  0.00    -0.000 C 
BRANCH   5   6
ATOM      6  C   UNL     1      -6.552  32.146   6.846  1.00  0.00    -0.000 C 
BRANCH   6   7
ATOM      7  C   UNL     1      -5.250  31.402   6.509  1.00  0.00    -0.000 C 
BRANCH   7   8
ATOM      8  C   UNL     1      -5.500  30.049   5.822  1.00  0.00    -0.000 C 
BRANCH   8   9
ATOM      9  C   UNL     1      -4.239  29.171   5.776  1.00  0.00    -0.000 C 
BRANCH   9  10
ATOM     10  C   UNL     1      -4.427  27.815   6.482  1.00  0.00    -0.000 C 
BRANCH  10  11
ATOM     11  C   UNL     1      -3.410  27.518   7.597  1.00  0.00    -0.003 C 
ATOM     12  C   UNL     1      -2.603  28.747   8.015  1.00  0.00     0.004 C 
ENDBRANCH  10  11
ENDBRANCH   9  10
ENDBRANCH   8   9
ENDBRANCH   7   8
ENDBRANCH   6   7
ENDBRANCH   5   6
ENDBRANCH   4   5
ENDBRANCH   3   4
ENDBRANCH   2   3
ENDBRANCH   1   2
BRANCH   1  13
ATOM     13  C   UNL     1      -9.992  37.248   5.422  1.00  0.00     0.000 C 
BRANCH  13  14
ATOM     14  C   UNL     1      -9.994  38.703   5.921  1.00  0.00     0.000 C 
BRANCH  14  15
ATOM     15  C   UNL     1     -11.350  39.402   5.721  1.00  0.00     0.000 C 
BRANCH  15  16
ATOM     16  C   UNL     1     -12.123  39.711   7.020  1.00  0.00     0.000 C 
BRANCH  16  17
ATOM     17  C   UNL     1     -11.359  39.408   8.324  1.00  0.00     0.000 C 
BRANCH  17  18
ATOM     18  C   UNL     1     -12.249  39.222   9.567  1.00  0.00     0.000 C 
BRANCH  18  19
ATOM     19  C   UNL     1     -12.120  37.827  10.219  1.00  0.00     0.000 C 
BRANCH  19  20
ATOM     20  C   UNL     1     -12.084  36.693   9.180  1.00  0.00     0.006 C 
BRANCH  20  21
ATOM     21  C   UNL     1     -10.765  35.909   9.221  1.00  0.00     0.053 C 
BRANCH  21  22
ATOM     22  C   UNL     1     -10.995  34.429   9.194  1.00  0.00     0.041 C 
ATOM     23  O   UNL     1     -11.259  33.850   8.107  1.00  0.00    -0.550 OA
ATOM     24  O   UNL     1     -10.946  33.694  10.371  1.00  0.00    -0.550 OA
ENDBRANCH  21  22
ENDBRANCH  20  21
ENDBRANCH  19  20
ENDBRANCH  18  19
ENDBRANCH  17  18
ENDBRANCH  16  17
ENDBRANCH  15  16
ENDBRANCH  14  15
ENDBRANCH  13  14
ENDBRANCH   1  13
TORSDOF 20
ENDMDL
MODEL 2
REMARK VINA RESULT:    -5.207      1.104      2.201
REMARK INTER + INTRA:         -13.029
REMARK INTER:                 -11.469
REMARK INTRA:                  -1.560
REMARK UNBOUND:                -1.735
REMARK SMILES CCCCCCCCCCCCCCCCCCCCCC(=O)[O-]
REMARK SMILES IDX 12 1 11 2 10 3 9 4 8 5 7 6 6 7 5 8 4 9 3 10 2 11 1 12 13 13
REMARK SMILES IDX 14 14 15 15 16 16 17 17 18 18 19 19 20 20 21 21 22 22 23 23
REMARK SMILES IDX 24 24
REMARK H PARENT
REMARK Flexibility Score: inf
ROOT
ATOM      1  C   UNL     1      -7.805  34.366   5.705  1.00  0.00     0.000 C 
ENDROOT
BRANCH   1   2
ATOM      2  C   UNL     1      -8.281  33.184   4.840  1.00  0.00     0.000 C 
BRANCH   2   3
ATOM      3  C   UNL     1      -8.004  31.823   5.497  1.00  0.00     0.000 C 
BRANCH   3   4
ATOM      4  C   UNL     1      -6.896  31.895   6.559  1.00  0.00    -0.000 C 
BRANCH   4   5
ATOM      5  C   UNL     1      -5.683  31.055   6.146  1.00  0.00    -0.000 C 
BRANCH   5   6
ATOM      6  C   UNL     1      -6.102  29.629   5.767  1.00  0.00    -0.000 C 
BRANCH   6   7
ATOM      7  C   UNL     1      -4.935  28.864   5.124  1.00  0.00    -0.000 C 
BRANCH   7   8
ATOM      8  C   UNL     1      -4.213  27.938   6.118  1.00  0.00    -0.000 C 
BRANCH   8   9
ATOM      9  C   UNL     1      -2.996  28.611   6.771  1.00  0.00    -0.000 C 
BRANCH   9  10
ATOM     10  C   UNL     1      -2.990  28.480   8.306  1.00  0.00    -0.000 C 
BRANCH  10  11
ATOM     11  C   UNL     1      -1.937  27.512   8.871  1.00  0.00    -0.003 C 
ATOM     12  C   UNL     1      -2.357  26.876  10.195  1.00  0.00     0.004 C 
ENDBRANCH  10  11
ENDBRANCH   9  10
ENDBRANCH   8   9
ENDBRANCH   7   8
ENDBRANCH   6   7
ENDBRANCH   5   6
ENDBRANCH   4   5
ENDBRANCH   3   4
ENDBRANCH   2   3
ENDBRANCH   1   2
BRANCH   1  13
ATOM     13  C   UNL     1      -8.971  35.212   6.237  1.00  0.00     0.000 C 
BRANCH  13  14
ATOM     14  C   UNL     1      -8.766  36.717   5.995  1.00  0.00     0.000 C 
BRANCH  14  15
ATOM     15  C   UNL     1     -10.012  37.403   5.407  1.00  0.00     0.000 C 
BRANCH  15  16
ATOM     16  C   UNL     1     -10.222  38.865   5.851  1.00  0.00     0.000 C 
BRANCH  16  17
ATOM     17  C   UNL     1     -11.609  39.175   6.448  1.00  0.00     0.000 C 
BRANCH  17  18
ATOM     18  C   UNL     1     -11.596  39.602   7.927  1.00  0.00     0.000 C 
BRANCH  18  19
ATOM     19  C   UNL     1     -12.462  38.704   8.840  1.00  0.00     0.000 C 
BRANCH  19  20
ATOM     20  C   UNL     1     -11.618  37.888   9.833  1.00  0.00     0.006 C 
BRANCH  20  21
ATOM     21  C   UNL     1     -10.801  36.789   9.138  1.00  0.00     0.053 C 
BRANCH  21  22
ATOM     22  C   UNL     1     -11.646  35.601   8.793  1.00  0.00     0.041 C 
ATOM     23  O   UNL     1     -12.323  35.595   7.730  1.00  0.00    -0.550 OA
ATOM     24  O   UNL     1     -11.708  34.515   9.654  1.00  0.00    -0.550 OA
ENDBRANCH  21  22
ENDBRANCH  20  21
ENDBRANCH  19  20
ENDBRANCH  18  19
ENDBRANCH  17  18
ENDBRANCH  16  17
ENDBRANCH  15  16
ENDBRANCH  14  15
ENDBRANCH  13  14
ENDBRANCH   1  13
TORSDOF 20
ENDMDL
MODEL 3
REMARK VINA RESULT:    -5.188      2.929      9.000
REMARK INTER + INTRA:         -12.988
REMARK INTER:                 -10.710
REMARK INTRA:                  -2.278
REMARK UNBOUND:                -1.735
REMARK SMILES CCCCCCCCCCCCCCCCCCCCCC(=O)[O-]
REMARK SMILES IDX 12 1 11 2 10 3 9 4 8 5 7 6 6 7 5 8 4 9 3 10 2 11 1 12 13 13
REMARK SMILES IDX 14 14 15 15 16 16 17 17 18 18 19 19 20 20 21 21 22 22 23 23
REMARK SMILES IDX 24 24
REMARK H PARENT
REMARK Flexibility Score: inf
ROOT
ATOM      1  C   UNL     1      -8.212  35.788   5.769  1.00  0.00     0.000 C 
ENDROOT
BRANCH   1   2
ATOM      2  C   UNL     1      -8.666  37.259   5.770  1.00  0.00     0.000 C 
BRANCH   2   3
ATOM      3  C   UNL     1     -10.177  37.410   5.536  1.00  0.00     0.000 C 
BRANCH   3   4
ATOM      4  C   UNL     1     -10.612  38.880   5.421  1.00  0.00    -0.000 C 
BRANCH   4   5
ATOM      5  C   UNL     1     -11.552  39.266   6.569  1.00  0.00    -0.000 C 
BRANCH   5   6
ATOM      6  C   UNL     1     -10.897  39.002   7.930  1.00  0.00    -0.000 C 
BRANCH   6   7
ATOM      7  C   UNL     1     -11.953  38.651   8.990  1.00  0.00    -0.000 C 
BRANCH   7   8
ATOM      8  C   UNL     1     -11.566  37.420   9.828  1.00  0.00    -0.000 C 
BRANCH   8   9
ATOM      9  C   UNL     1     -10.461  36.581   9.166  1.00  0.00    -0.000 C 
BRANCH   9  10
ATOM     10  C   UNL     1     -10.916  35.148   8.832  1.00  0.00    -0.000 C 
BRANCH  10  11
ATOM     11  C   UNL     1     -11.979  35.045   7.725  1.00  0.00    -0.003 C 
ATOM     12  C   UNL     1     -12.958  33.892   7.940  1.00  0.00     0.004 C 
ENDBRANCH  10  11
ENDBRANCH   9  10
ENDBRANCH   8   9
ENDBRANCH   7   8
ENDBRANCH   6   7
ENDBRANCH   5   6
ENDBRANCH   4   5
ENDBRANCH   3   4
ENDBRANCH   2   3
ENDBRANCH   1   2
BRANCH   1  13
ATOM     13  C   UNL     1      -9.347  34.822   5.395  1.00  0.00     0.000 C 
BRANCH  13  14
ATOM     14  C   UNL     1      -8.946  33.347   5.568  1.00  0.00     0.000 C 
BRANCH  14  15
ATOM     15  C   UNL     1      -7.431  33.159   5.759  1.00  0.00     0.000 C 
BRANCH  15  16
ATOM     16  C   UNL     1      -7.016  31.818   6.401  1.00  0.00     0.000 C 
BRANCH  16  17
ATOM     17  C   UNL     1      -7.817  30.591   5.927  1.00  0.00     0.000 C 
BRANCH  17  18
ATOM     18  C   UNL     1      -7.016  29.277   5.873  1.00  0.00     0.000 C 
BRANCH  18  19
ATOM     19  C   UNL     1      -5.534  29.470   5.477  1.00  0.00     0.000 C 
BRANCH  19  20
ATOM     20  C   UNL     1      -4.659  28.269   5.874  1.00  0.00     0.006 C 
BRANCH  20  21
ATOM     21  C   UNL     1      -3.211  28.679   6.176  1.00  0.00     0.053 C 
BRANCH  21  22
ATOM     22  C   UNL     1      -3.046  29.139   7.592  1.00  0.00     0.041 C 
ATOM     23  O   UNL     1      -3.064  30.369   7.863  1.00  0.00    -0.550 OA
ATOM     24  O   UNL     1      -2.845  28.214   8.608  1.00  0.00    -0.550 OA
ENDBRANCH  21  22
ENDBRANCH  20  21
ENDBRANCH  19  20
ENDBRANCH  18  19
ENDBRANCH  17  18
ENDBRANCH  16  17
ENDBRANCH  15  16
ENDBRANCH  14  15
ENDBRANCH  13  14
ENDBRANCH   1  13
TORSDOF 20
ENDMDL
MODEL 4
REMARK VINA RESULT:    -5.049      2.524      9.550
REMARK INTER + INTRA:         -12.687
REMARK INTER:                 -10.726
REMARK INTRA:                  -1.961
REMARK UNBOUND:                -1.735
REMARK SMILES CCCCCCCCCCCCCCCCCCCCCC(=O)[O-]
REMARK SMILES IDX 12 1 11 2 10 3 9 4 8 5 7 6 6 7 5 8 4 9 3 10 2 11 1 12 13 13
REMARK SMILES IDX 14 14 15 15 16 16 17 17 18 18 19 19 20 20 21 21 22 22 23 23
REMARK SMILES IDX 24 24
REMARK H PARENT
REMARK Flexibility Score: inf
ROOT
ATOM      1  C   UNL     1      -8.409  33.889   5.192  1.00  0.00     0.000 C 
ENDROOT
BRANCH   1   2
ATOM      2  C   UNL     1      -8.201  35.110   6.106  1.00  0.00     0.000 C 
BRANCH   2   3
ATOM      3  C   UNL     1      -8.998  36.338   5.640  1.00  0.00     0.000 C 
BRANCH   3   4
ATOM      4  C   UNL     1      -8.188  37.640   5.744  1.00  0.00    -0.000 C 
BRANCH   4   5
ATOM      5  C   UNL     1      -9.074  38.803   6.204  1.00  0.00    -0.000 C 
BRANCH   5   6
ATOM      6  C   UNL     1     -10.457  38.738   5.544  1.00  0.00    -0.000 C 
BRANCH   6   7
ATOM      7  C   UNL     1     -11.539  39.306   6.476  1.00  0.00    -0.000 C 
BRANCH   7   8
ATOM      8  C   UNL     1     -11.260  39.009   7.959  1.00  0.00    -0.000 C 
BRANCH   8   9
ATOM      9  C   UNL     1     -12.236  37.977   8.546  1.00  0.00    -0.000 C 
BRANCH   9  10
ATOM     10  C   UNL     1     -11.984  36.550   8.024  1.00  0.00    -0.000 C 
BRANCH  10  11
ATOM     11  C   UNL     1     -10.978  35.726   8.845  1.00  0.00    -0.003 C 
ATOM     12  C   UNL     1     -10.884  34.270   8.392  1.00  0.00     0.004 C 
ENDBRANCH  10  11
ENDBRANCH   9  10
ENDBRANCH   8   9
ENDBRANCH   7   8
ENDBRANCH   6   7
ENDBRANCH   5   6
ENDBRANCH   4   5
ENDBRANCH   3   4
ENDBRANCH   2   3
ENDBRANCH   1   2
BRANCH   1  13
ATOM     13  C   UNL     1      -7.730  32.623   5.737  1.00  0.00     0.000 C 
BRANCH  13  14
ATOM     14  C   UNL     1      -6.248  32.850   6.077  1.00  0.00     0.000 C 
BRANCH  14  15
ATOM     15  C   UNL     1      -5.670  31.757   6.994  1.00  0.00     0.000 C 
BRANCH  15  16
ATOM     16  C   UNL     1      -4.480  30.972   6.403  1.00  0.00     0.000 C 
BRANCH  16  17
ATOM     17  C   UNL     1      -3.614  30.224   7.434  1.00  0.00     0.000 C 
BRANCH  17  18
ATOM     18  C   UNL     1      -2.837  29.019   6.873  1.00  0.00     0.000 C 
BRANCH  18  19
ATOM     19  C   UNL     1      -3.080  27.706   7.651  1.00  0.00     0.000 C 
BRANCH  19  20
ATOM     20  C   UNL     1      -4.496  27.146   7.430  1.00  0.00     0.006 C 
BRANCH  20  21
ATOM     21  C   UNL     1      -4.917  27.196   5.954  1.00  0.00     0.053 C 
BRANCH  21  22
ATOM     22  C   UNL     1      -6.313  27.712   5.791  1.00  0.00     0.041 C 
ATOM     23  O   UNL     1      -7.251  27.228   6.478  1.00  0.00    -0.550 OA
ATOM     24  O   UNL     1      -6.584  28.707   4.861  1.00  0.00    -0.550 OA
ENDBRANCH  21  22
ENDBRANCH  20  21
ENDBRANCH  19  20
ENDBRANCH  18  19
ENDBRANCH  17  18
ENDBRANCH  16  17
ENDBRANCH  15  16
ENDBRANCH  14  15
ENDBRANCH  13  14
ENDBRANCH   1  13
TORSDOF 20
ENDMDL
MODEL 5
REMARK VINA RESULT:    -5.040      2.279      3.588
REMARK INTER + INTRA:         -12.668
REMARK INTER:                 -10.511
REMARK INTRA:                  -2.156
REMARK UNBOUND:                -1.735
REMARK SMILES CCCCCCCCCCCCCCCCCCCCCC(=O)[O-]
REMARK SMILES IDX 12 1 11 2 10 3 9 4 8 5 7 6 6 7 5 8 4 9 3 10 2 11 1 12 13 13
REMARK SMILES IDX 14 14 15 15 16 16 17 17 18 18 19 19 20 20 21 21 22 22 23 23
REMARK SMILES IDX 24 24
REMARK H PARENT
REMARK Flexibility Score: inf
ROOT
ATOM      1  C   UNL     1      -7.791  34.732   5.453  1.00  0.00     0.000 C 
ENDROOT
BRANCH   1   2
ATOM      2  C   UNL     1      -8.418  33.389   5.040  1.00  0.00     0.000 C 
BRANCH   2   3
ATOM      3  C   UNL     1      -7.614  32.181   5.545  1.00  0.00     0.000 C 
BRANCH   3   4
ATOM      4  C   UNL     1      -8.435  31.270   6.470  1.00  0.00    -0.000 C 
BRANCH   4   5
ATOM      5  C   UNL     1      -8.163  29.792   6.170  1.00  0.00    -0.000 C 
BRANCH   5   6
ATOM      6  C   UNL     1      -7.642  29.608   4.739  1.00  0.00    -0.000 C 
BRANCH   6   7
ATOM      7  C   UNL     1      -6.342  28.788   4.728  1.00  0.00    -0.000 C 
BRANCH   7   8
ATOM      8  C   UNL     1      -6.270  27.774   5.882  1.00  0.00    -0.000 C 
BRANCH   8   9
ATOM      9  C   UNL     1      -4.830  27.534   6.365  1.00  0.00    -0.000 C 
BRANCH   9  10
ATOM     10  C   UNL     1      -3.997  28.828   6.433  1.00  0.00    -0.000 C 
BRANCH  10  11
ATOM     11  C   UNL     1      -2.611  28.674   7.082  1.00  0.00    -0.003 C 
ATOM     12  C   UNL     1      -2.680  28.242   8.546  1.00  0.00     0.004 C 
ENDBRANCH  10  11
ENDBRANCH   9  10
ENDBRANCH   8   9
ENDBRANCH   7   8
ENDBRANCH   6   7
ENDBRANCH   5   6
ENDBRANCH   4   5
ENDBRANCH   3   4
ENDBRANCH   2   3
ENDBRANCH   1   2
BRANCH   1  13
ATOM     13  C   UNL     1      -8.823  35.708   6.039  1.00  0.00     0.000 C 
BRANCH  13  14
ATOM     14  C   UNL     1     -10.246  35.442   5.519  1.00  0.00     0.000 C 
BRANCH  14  15
ATOM     15  C   UNL     1     -11.256  35.176   6.650  1.00  0.00     0.000 C 
BRANCH  15  16
ATOM     16  C   UNL     1     -10.661  34.523   7.915  1.00  0.00     0.000 C 
BRANCH  16  17
ATOM     17  C   UNL     1     -11.062  35.188   9.245  1.00  0.00     0.000 C 
BRANCH  17  18
ATOM     18  C   UNL     1     -10.522  36.616   9.443  1.00  0.00     0.000 C 
BRANCH  18  19
ATOM     19  C   UNL     1     -11.628  37.671   9.679  1.00  0.00     0.000 C 
BRANCH  19  20
ATOM     20  C   UNL     1     -12.126  38.302   8.368  1.00  0.00     0.006 C 
BRANCH  20  21
ATOM     21  C   UNL     1     -10.997  38.987   7.585  1.00  0.00     0.053 C 
BRANCH  21  22
ATOM     22  C   UNL     1     -11.410  39.316   6.184  1.00  0.00     0.041 C 
ATOM     23  O   UNL     1     -12.434  40.019   5.977  1.00  0.00    -0.550 OA
ATOM     24  O   UNL     1     -10.682  38.826   5.108  1.00  0.00    -0.550 OA
ENDBRANCH  21  22
ENDBRANCH  20  21
ENDBRANCH  19  20
ENDBRANCH  18  19
ENDBRANCH  17  18
ENDBRANCH  16  17
ENDBRANCH  15  16
ENDBRANCH  14  15
ENDBRANCH  13  14
ENDBRANCH   1  13
TORSDOF 20
ENDMDL
MODEL 6
REMARK VINA RESULT:    -5.036      3.098      9.512
REMARK INTER + INTRA:         -12.660
REMARK INTER:                 -10.382
REMARK INTRA:                  -2.278
REMARK UNBOUND:                -1.735
REMARK SMILES CCCCCCCCCCCCCCCCCCCCCC(=O)[O-]
REMARK SMILES IDX 12 1 11 2 10 3 9 4 8 5 7 6 6 7 5 8 4 9 3 10 2 11 1 12 13 13
REMARK SMILES IDX 14 14 15 15 16 16 17 17 18 18 19 19 20 20 21 21 22 22 23 23
REMARK SMILES IDX 24 24
REMARK H PARENT
REMARK Flexibility Score: inf
ROOT
ATOM      1  C   UNL     1      -8.369  34.564   6.060  1.00  0.00     0.000 C 
ENDROOT
BRANCH   1   2
ATOM      2  C   UNL     1      -9.762  34.940   5.523  1.00  0.00     0.000 C 
BRANCH   2   3
ATOM      3  C   UNL     1      -9.935  36.456   5.340  1.00  0.00     0.000 C 
BRANCH   3   4
ATOM      4  C   UNL     1      -8.708  37.250   5.815  1.00  0.00    -0.000 C 
BRANCH   4   5
ATOM      5  C   UNL     1      -9.093  38.689   6.178  1.00  0.00    -0.000 C 
BRANCH   5   6
ATOM      6  C   UNL     1     -10.558  38.974   5.825  1.00  0.00    -0.000 C 
BRANCH   6   7
ATOM      7  C   UNL     1     -11.354  39.390   7.072  1.00  0.00    -0.000 C 
BRANCH   7   8
ATOM      8  C   UNL     1     -11.437  38.270   8.124  1.00  0.00    -0.000 C 
BRANCH   8   9
ATOM      9  C   UNL     1     -12.739  37.459   8.016  1.00  0.00    -0.000 C 
BRANCH   9  10
ATOM     10  C   UNL     1     -12.555  35.977   8.395  1.00  0.00    -0.000 C 
BRANCH  10  11
ATOM     11  C   UNL     1     -11.188  35.630   9.008  1.00  0.00    -0.003 C 
ATOM     12  C   UNL     1     -10.833  34.149   8.880  1.00  0.00     0.004 C 
ENDBRANCH  10  11
ENDBRANCH   9  10
ENDBRANCH   8   9
ENDBRANCH   7   8
ENDBRANCH   6   7
ENDBRANCH   5   6
ENDBRANCH   4   5
ENDBRANCH   3   4
ENDBRANCH   2   3
ENDBRANCH   1   2
BRANCH   1  13
ATOM     13  C   UNL     1      -8.156  33.044   6.129  1.00  0.00     0.000 C 
BRANCH  13  14
ATOM     14  C   UNL     1      -6.683  32.666   6.360  1.00  0.00     0.000 C 
BRANCH  14  15
ATOM     15  C   UNL     1      -6.409  31.167   6.139  1.00  0.00     0.000 C 
BRANCH  15  16
ATOM     16  C   UNL     1      -7.573  30.378   5.505  1.00  0.00     0.000 C 
BRANCH  16  17
ATOM     17  C   UNL     1      -7.290  28.885   5.250  1.00  0.00     0.000 C 
BRANCH  17  18
ATOM     18  C   UNL     1      -6.289  28.602   4.114  1.00  0.00     0.000 C 
BRANCH  18  19
ATOM     19  C   UNL     1      -5.130  27.666   4.526  1.00  0.00     0.000 C 
BRANCH  19  20
ATOM     20  C   UNL     1      -4.014  28.410   5.279  1.00  0.00     0.006 C 
BRANCH  20  21
ATOM     21  C   UNL     1      -4.069  28.163   6.793  1.00  0.00     0.053 C 
BRANCH  21  22
ATOM     22  C   UNL     1      -3.026  28.951   7.525  1.00  0.00     0.041 C 
ATOM     23  O   UNL     1      -3.212  30.173   7.767  1.00  0.00    -0.550 OA
ATOM     24  O   UNL     1      -1.840  28.345   7.914  1.00  0.00    -0.550 OA
ENDBRANCH  21  22
ENDBRANCH  20  21
ENDBRANCH  19  20
ENDBRANCH  18  19
ENDBRANCH  17  18
ENDBRANCH  16  17
ENDBRANCH  15  16
ENDBRANCH  14  15
ENDBRANCH  13  14
ENDBRANCH   1  13
TORSDOF 20
ENDMDL
MODEL 7
REMARK VINA RESULT:    -5.009     14.009     16.853
REMARK INTER + INTRA:         -12.600
REMARK INTER:                  -9.246
REMARK INTRA:                  -3.354
REMARK UNBOUND:                -1.735
REMARK SMILES CCCCCCCCCCCCCCCCCCCCCC(=O)[O-]
REMARK SMILES IDX 12 1 11 2 10 3 9 4 8 5 7 6 6 7 5 8 4 9 3 10 2 11 1 12 13 13
REMARK SMILES IDX 14 14 15 15 16 16 17 17 18 18 19 19 20 20 21 21 22 22 23 23
REMARK SMILES IDX 24 24
REMARK H PARENT
REMARK Flexibility Score: inf
ROOT
ATOM      1  C   UNL     1       3.274  40.991   2.291  1.00  0.00     0.000 C 
ENDROOT
BRANCH   1   2
ATOM      2  C   UNL     1       2.497  42.320   2.311  1.00  0.00     0.000 C 
BRANCH   2   3
ATOM      3  C   UNL     1       0.977  42.114   2.391  1.00  0.00     0.000 C 
BRANCH   3   4
ATOM      4  C   UNL     1       0.195  43.430   2.250  1.00  0.00    -0.000 C 
BRANCH   4   5
ATOM      5  C   UNL     1       1.090  44.543   1.693  1.00  0.00    -0.000 C 
BRANCH   5   6
ATOM      6  C   UNL     1       1.080  45.771   2.612  1.00  0.00    -0.000 C 
BRANCH   6   7
ATOM      7  C   UNL     1       2.137  45.638   3.719  1.00  0.00    -0.000 C 
BRANCH   7   8
ATOM      8  C   UNL     1       1.663  46.213   5.065  1.00  0.00    -0.000 C 
BRANCH   8   9
ATOM      9  C   UNL     1       1.719  45.176   6.199  1.00  0.00    -0.000 C 
BRANCH   9  10
ATOM     10  C   UNL     1       0.895  43.911   5.897  1.00  0.00    -0.000 C 
BRANCH  10  11
ATOM     11  C   UNL     1      -0.607  44.154   5.671  1.00  0.00    -0.003 C 
ATOM     12  C   UNL     1      -1.439  42.874   5.744  1.00  0.00     0.004 C 
ENDBRANCH  10  11
ENDBRANCH   9  10
ENDBRANCH   8   9
ENDBRANCH   7   8
ENDBRANCH   6   7
ENDBRANCH   5   6
ENDBRANCH   4   5
ENDBRANCH   3   4
ENDBRANCH   2   3
ENDBRANCH   1   2
BRANCH   1  13
ATOM     13  C   UNL     1       4.796  41.199   2.313  1.00  0.00     0.000 C 
BRANCH  13  14
ATOM     14  C   UNL     1       5.527  40.298   1.303  1.00  0.00     0.000 C 
BRANCH  14  15
ATOM     15  C   UNL     1       6.321  41.098   0.255  1.00  0.00     0.000 C 
BRANCH  15  16
ATOM     16  C   UNL     1       5.462  41.799  -0.818  1.00  0.00     0.000 C 
BRANCH  16  17
ATOM     17  C   UNL     1       5.410  43.336  -0.714  1.00  0.00     0.000 C 
BRANCH  17  18
ATOM     18  C   UNL     1       3.992  43.935  -0.688  1.00  0.00     0.000 C 
BRANCH  18  19
ATOM     19  C   UNL     1       2.885  42.927  -1.073  1.00  0.00     0.000 C 
BRANCH  19  20
ATOM     20  C   UNL     1       1.704  43.598  -1.794  1.00  0.00     0.006 C 
BRANCH  20  21
ATOM     21  C   UNL     1       0.396  42.813  -1.622  1.00  0.00     0.053 C 
BRANCH  21  22
ATOM     22  C   UNL     1      -0.781  43.722  -1.444  1.00  0.00     0.041 C 
ATOM     23  O   UNL     1      -1.692  43.422  -0.628  1.00  0.00    -0.550 OA
ATOM     24  O   UNL     1      -0.886  44.883  -2.197  1.00  0.00    -0.550 OA
ENDBRANCH  21  22
ENDBRANCH  20  21
ENDBRANCH  19  20
ENDBRANCH  18  19
ENDBRANCH  17  18
ENDBRANCH  16  17
ENDBRANCH  15  16
ENDBRANCH  14  15
ENDBRANCH  13  14
ENDBRANCH   1  13
TORSDOF 20
ENDMDL
MODEL 8
REMARK VINA RESULT:    -4.997      3.178      9.794
REMARK INTER + INTRA:         -12.574
REMARK INTER:                 -10.730
REMARK INTRA:                  -1.844
REMARK UNBOUND:                -1.735
REMARK SMILES CCCCCCCCCCCCCCCCCCCCCC(=O)[O-]
REMARK SMILES IDX 12 1 11 2 10 3 9 4 8 5 7 6 6 7 5 8 4 9 3 10 2 11 1 12 13 13
REMARK SMILES IDX 14 14 15 15 16 16 17 17 18 18 19 19 20 20 21 21 22 22 23 23
REMARK SMILES IDX 24 24
REMARK H PARENT
REMARK Flexibility Score: inf
ROOT
ATOM      1  C   UNL     1      -7.484  33.739   5.770  1.00  0.00     0.000 C 
ENDROOT
BRANCH   1   2
ATOM      2  C   UNL     1      -8.745  34.599   5.976  1.00  0.00     0.000 C 
BRANCH   2   3
ATOM      3  C   UNL     1      -9.720  33.982   6.991  1.00  0.00     0.000 C 
BRANCH   3   4
ATOM      4  C   UNL     1     -10.870  34.933   7.356  1.00  0.00    -0.000 C 
BRANCH   4   5
ATOM      5  C   UNL     1     -10.832  35.295   8.845  1.00  0.00    -0.000 C 
BRANCH   5   6
ATOM      6  C   UNL     1     -11.126  36.785   9.058  1.00  0.00    -0.000 C 
BRANCH   6   7
ATOM      7  C   UNL     1     -11.899  37.370   7.865  1.00  0.00    -0.000 C 
BRANCH   7   8
ATOM      8  C   UNL     1     -11.791  38.902   7.782  1.00  0.00    -0.000 C 
BRANCH   8   9
ATOM      9  C   UNL     1     -11.595  39.400   6.340  1.00  0.00    -0.000 C 
BRANCH   9  10
ATOM     10  C   UNL     1     -10.305  38.863   5.691  1.00  0.00    -0.000 C 
BRANCH  10  11
ATOM     11  C   UNL     1      -9.054  38.928   6.584  1.00  0.00    -0.003 C 
ATOM     12  C   UNL     1      -7.887  38.104   6.040  1.00  0.00     0.004 C 
ENDBRANCH  10  11
ENDBRANCH   9  10
ENDBRANCH   8   9
ENDBRANCH   7   8
ENDBRANCH   6   7
ENDBRANCH   5   6
ENDBRANCH   4   5
ENDBRANCH   3   4
ENDBRANCH   2   3
ENDBRANCH   1   2
BRANCH   1  13
ATOM     13  C   UNL     1      -7.515  32.443   6.594  1.00  0.00     0.000 C 
BRANCH  13  14
ATOM     14  C   UNL     1      -7.296  31.190   5.729  1.00  0.00     0.000 C 
BRANCH  14  15
ATOM     15  C   UNL     1      -8.299  30.066   6.041  1.00  0.00     0.000 C 
BRANCH  15  16
ATOM     16  C   UNL     1      -8.049  28.742   5.289  1.00  0.00     0.000 C 
BRANCH  16  17
ATOM     17  C   UNL     1      -7.067  28.836   4.106  1.00  0.00     0.000 C 
BRANCH  17  18
ATOM     18  C   UNL     1      -5.912  27.819   4.140  1.00  0.00     0.000 C 
BRANCH  18  19
ATOM     19  C   UNL     1      -4.555  28.434   4.547  1.00  0.00     0.000 C 
BRANCH  19  20
ATOM     20  C   UNL     1      -4.533  28.892   6.015  1.00  0.00     0.006 C 
BRANCH  20  21
ATOM     21  C   UNL     1      -3.678  27.972   6.899  1.00  0.00     0.053 C 
BRANCH  21  22
ATOM     22  C   UNL     1      -2.999  28.729   7.999  1.00  0.00     0.041 C 
ATOM     23  O   UNL     1      -2.530  28.113   8.992  1.00  0.00    -0.550 OA
ATOM     24  O   UNL     1      -2.910  30.113   7.942  1.00  0.00    -0.550 OA
ENDBRANCH  21  22
ENDBRANCH  20  21
ENDBRANCH  19  20
ENDBRANCH  18  19
ENDBRANCH  17  18
ENDBRANCH  16  17
ENDBRANCH  15  16
ENDBRANCH  14  15
ENDBRANCH  13  14
ENDBRANCH   1  13
TORSDOF 20
ENDMDL
MODEL 9
REMARK VINA RESULT:    -4.920     14.269     15.879
REMARK INTER + INTRA:         -12.408
REMARK INTER:                  -8.872
REMARK INTRA:                  -3.536
REMARK UNBOUND:                -1.735
REMARK SMILES CCCCCCCCCCCCCCCCCCCCCC(=O)[O-]
REMARK SMILES IDX 12 1 11 2 10 3 9 4 8 5 7 6 6 7 5 8 4 9 3 10 2 11 1 12 13 13
REMARK SMILES IDX 14 14 15 15 16 16 17 17 18 18 19 19 20 20 21 21 22 22 23 23
REMARK SMILES IDX 24 24
REMARK H PARENT
REMARK Flexibility Score: inf
ROOT
ATOM      1  C   UNL     1      -0.372  42.575   1.209  1.00  0.00     0.000 C 
ENDROOT
BRANCH   1   2
ATOM      2  C   UNL     1       0.799  41.590   1.374  1.00  0.00     0.000 C 
BRANCH   2   3
ATOM      3  C   UNL     1       1.840  42.075   2.394  1.00  0.00     0.000 C 
BRANCH   3   4
ATOM      4  C   UNL     1       3.282  41.903   1.892  1.00  0.00    -0.000 C 
BRANCH   4   5
ATOM      5  C   UNL     1       3.896  40.602   2.422  1.00  0.00    -0.000 C 
BRANCH   5   6
ATOM      6  C   UNL     1       5.428  40.652   2.365  1.00  0.00    -0.000 C 
BRANCH   6   7
ATOM      7  C   UNL     1       5.975  39.638   1.349  1.00  0.00    -0.000 C 
BRANCH   7   8
ATOM      8  C   UNL     1       6.829  40.298   0.252  1.00  0.00    -0.000 C 
BRANCH   8   9
ATOM      9  C   UNL     1       5.985  40.781  -0.938  1.00  0.00    -0.000 C 
BRANCH   9  10
ATOM     10  C   UNL     1       5.662  42.286  -0.871  1.00  0.00    -0.000 C 
BRANCH  10  11
ATOM     11  C   UNL     1       6.683  43.135  -0.095  1.00  0.00    -0.003 C 
ATOM     12  C   UNL     1       6.032  44.229   0.752  1.00  0.00     0.004 C 
ENDBRANCH  10  11
ENDBRANCH   9  10
ENDBRANCH   8   9
ENDBRANCH   7   8
ENDBRANCH   6   7
ENDBRANCH   5   6
ENDBRANCH   4   5
ENDBRANCH   3   4
ENDBRANCH   2   3
ENDBRANCH   1   2
BRANCH   1  13
ATOM     13  C   UNL     1      -0.889  42.639  -0.236  1.00  0.00     0.000 C 
BRANCH  13  14
ATOM     14  C   UNL     1       0.242  42.511  -1.272  1.00  0.00     0.000 C 
BRANCH  14  15
ATOM     15  C   UNL     1       0.908  43.859  -1.599  1.00  0.00     0.000 C 
BRANCH  15  16
ATOM     16  C   UNL     1       2.312  44.058  -0.991  1.00  0.00     0.000 C 
BRANCH  16  17
ATOM     17  C   UNL     1       2.382  45.054   0.182  1.00  0.00     0.000 C 
BRANCH  17  18
ATOM     18  C   UNL     1       1.065  45.792   0.483  1.00  0.00     0.000 C 
BRANCH  18  19
ATOM     19  C   UNL     1       1.009  46.410   1.899  1.00  0.00     0.000 C 
BRANCH  19  20
ATOM     20  C   UNL     1       0.342  45.474   2.922  1.00  0.00     0.006 C 
BRANCH  20  21
ATOM     21  C   UNL     1       1.277  45.126   4.088  1.00  0.00     0.053 C 
BRANCH  21  22
ATOM     22  C   UNL     1       0.534  44.516   5.236  1.00  0.00     0.041 C 
ATOM     23  O   UNL     1      -0.691  44.760   5.397  1.00  0.00    -0.550 OA
ATOM     24  O   UNL     1       1.198  43.701   6.143  1.00  0.00    -0.550 OA
ENDBRANCH  21  22
ENDBRANCH  20  21
ENDBRANCH  19  20
ENDBRANCH  18  19
ENDBRANCH  17  18
ENDBRANCH  16  17
ENDBRANCH  15  16
ENDBRANCH  14  15
ENDBRANCH  13  14
ENDBRANCH   1  13
TORSDOF 20
ENDMDL
