MODEL 1
REMARK VINA RESULT:    -7.931      0.000      0.000
REMARK INTER + INTRA:          -9.625
REMARK INTER:                  -9.322
REMARK INTRA:                  -0.303
REMARK UNBOUND:                -0.303
REMARK SMILES O=c1cc(-c2ccc(O)c(O)c2)oc2cc(O)cc(O)c12
REMARK SMILES IDX 4 1 3 2 2 3 1 4 21 5 19 6 18 7 16 8 15 9 14 10 13 11 5 12
REMARK SMILES IDX 6 13 7 14 8 15 12 16 10 17 9 18 11 20 20 22 17 24
REMARK H PARENT 9 19 11 21 20 23 17 25
REMARK Flexibility Score: inf
ROOT
ATOM      1  C   UNL     1      83.236  63.563   8.905  1.00  0.00     0.138 A 
ATOM      2  C   UNL     1      83.549  64.888   9.237  1.00  0.00     0.100 A 
ATOM      3  C   UNL     1      84.650  65.154  10.051  1.00  0.00     0.197 A 
ATOM      4  O   UNL     1      84.937  66.357  10.285  1.00  0.00    -0.289 OA
ATOM      5  C   UNL     1      85.422  64.085  10.564  1.00  0.00     0.107 A 
ATOM      6  C   UNL     1      86.546  64.234  11.431  1.00  0.00     0.134 A 
ATOM      7  C   UNL     1      87.291  63.104  11.795  1.00  0.00     0.093 A 
ATOM      8  C   UNL     1      86.918  61.827  11.371  1.00  0.00     0.123 A 
ATOM      9  C   UNL     1      85.793  61.665  10.566  1.00  0.00     0.094 A 
ATOM     10  C   UNL     1      85.049  62.775  10.157  1.00  0.00     0.146 A 
ATOM     11  O   UNL     1      83.994  62.578   9.375  1.00  0.00    -0.456 OA
ENDROOT
BRANCH   1  12
ATOM     12  C   UNL     1      82.073  63.221   8.046  1.00  0.00     0.021 A 
ATOM     13  C   UNL     1      80.906  63.997   8.123  1.00  0.00     0.016 A 
ATOM     14  C   UNL     1      79.798  63.692   7.331  1.00  0.00     0.051 A 
ATOM     15  C   UNL     1      79.825  62.604   6.453  1.00  0.00     0.157 A 
ATOM     16  C   UNL     1      82.097  62.117   7.174  1.00  0.00     0.062 A 
ATOM     17  C   UNL     1      80.988  61.802   6.378  1.00  0.00     0.158 A 
BRANCH  15  18
ATOM     18  O   UNL     1      78.685  62.358   5.685  1.00  0.00    -0.504 OA
ATOM     19  H   UNL     1      78.559  61.537   5.111  1.00  0.00     0.293 HD
ENDBRANCH  15  18
BRANCH  17  20
ATOM     20  O   UNL     1      81.083  60.691   5.538  1.00  0.00    -0.504 OA
ATOM     21  H   UNL     1      81.911  60.118   5.449  1.00  0.00     0.293 HD
ENDBRANCH  17  20
ENDBRANCH   1  12
BRANCH   6  22
ATOM     22  O   UNL     1      86.958  65.452  11.977  1.00  0.00    -0.507 OA
ATOM     23  H   UNL     1      87.529  66.137  11.504  1.00  0.00     0.293 HD
ENDBRANCH   6  22
BRANCH   8  24
ATOM     24  O   UNL     1      87.657  60.708  11.751  1.00  0.00    -0.508 OA
ATOM     25  H   UNL     1      87.335  60.083  12.481  1.00  0.00     0.293 HD
ENDBRANCH   8  24
TORSDOF 5
ENDMDL
MODEL 2
REMARK VINA RESULT:    -7.642      6.740     10.334
REMARK INTER + INTRA:          -9.286
REMARK INTER:                  -9.001
REMARK INTRA:                  -0.285
REMARK UNBOUND:                -0.303
REMARK SMILES O=c1cc(-c2ccc(O)c(O)c2)oc2cc(O)cc(O)c12
REMARK SMILES IDX 4 1 3 2 2 3 1 4 21 5 19 6 18 7 16 8 15 9 14 10 13 11 5 12
REMARK SMILES IDX 6 13 7 14 8 15 12 16 10 17 9 18 11 20 20 22 17 24
REMARK H PARENT 9 19 11 21 20 23 17 25
REMARK Flexibility Score: inf
ROOT
ATOM      1  C   UNL     1      75.924  62.003   1.941  1.00  0.00     0.138 A 
ATOM      2  C   UNL     1      76.613  62.714   0.950  1.00  0.00     0.100 A 
ATOM      3  C   UNL     1      77.917  63.147   1.191  1.00  0.00     0.197 A 
ATOM      4  O   UNL     1      78.528  63.734   0.261  1.00  0.00    -0.289 OA
ATOM      5  C   UNL     1      78.522  62.897   2.446  1.00  0.00     0.107 A 
ATOM      6  C   UNL     1      79.834  63.319   2.817  1.00  0.00     0.134 A 
ATOM      7  C   UNL     1      80.361  62.926   4.054  1.00  0.00     0.093 A 
ATOM      8  C   UNL     1      79.603  62.175   4.956  1.00  0.00     0.123 A 
ATOM      9  C   UNL     1      78.303  61.801   4.624  1.00  0.00     0.094 A 
ATOM     10  C   UNL     1      77.761  62.147   3.383  1.00  0.00     0.146 A 
ATOM     11  O   UNL     1      76.524  61.754   3.100  1.00  0.00    -0.456 OA
ENDROOT
BRANCH   1  12
ATOM     12  C   UNL     1      74.533  61.522   1.740  1.00  0.00     0.021 A 
ATOM     13  C   UNL     1      73.645  61.504   2.827  1.00  0.00     0.016 A 
ATOM     14  C   UNL     1      72.335  61.051   2.666  1.00  0.00     0.051 A 
ATOM     15  C   UNL     1      71.884  60.597   1.422  1.00  0.00     0.157 A 
ATOM     16  C   UNL     1      74.086  61.051   0.491  1.00  0.00     0.062 A 
ATOM     17  C   UNL     1      72.773  60.591   0.322  1.00  0.00     0.158 A 
BRANCH  15  18
ATOM     18  O   UNL     1      70.561  60.162   1.327  1.00  0.00    -0.504 OA
ATOM     19  H   UNL     1      70.281  59.193   1.374  1.00  0.00     0.293 HD
ENDBRANCH  15  18
BRANCH  17  20
ATOM     20  O   UNL     1      72.401  60.137  -0.945  1.00  0.00    -0.504 OA
ATOM     21  H   UNL     1      72.099  59.193  -1.141  1.00  0.00     0.293 HD
ENDBRANCH  17  20
ENDBRANCH   1  12
BRANCH   6  22
ATOM     22  O   UNL     1      80.646  64.137   2.027  1.00  0.00    -0.507 OA
ATOM     23  H   UNL     1      80.318  64.745   1.292  1.00  0.00     0.293 HD
ENDBRANCH   6  22
BRANCH   8  24
ATOM     24  O   UNL     1      80.131  61.803   6.190  1.00  0.00    -0.508 OA
ATOM     25  H   UNL     1      81.100  61.983   6.429  1.00  0.00     0.293 HD
ENDBRANCH   8  24
TORSDOF 5
ENDMDL
MODEL 3
REMARK VINA RESULT:    -7.592      6.012     12.184
REMARK INTER + INTRA:          -9.227
REMARK INTER:                  -8.921
REMARK INTRA:                  -0.306
REMARK UNBOUND:                -0.303
REMARK SMILES O=c1cc(-c2ccc(O)c(O)c2)oc2cc(O)cc(O)c12
REMARK SMILES IDX 4 1 3 2 2 3 1 4 21 5 19 6 18 7 16 8 15 9 14 10 13 11 5 12
REMARK SMILES IDX 6 13 7 14 8 15 12 16 10 17 9 18 11 20 20 22 17 24
REMARK H PARENT 9 19 11 21 20 23 17 25
REMARK Flexibility Score: inf
ROOT
ATOM      1  C   UNL     1      76.875  61.453   2.904  1.00  0.00     0.138 A 
ATOM      2  C   UNL     1      77.171  61.279   1.546  1.00  0.00     0.100 A 
ATOM      3  C   UNL     1      76.132  61.123   0.628  1.00  0.00     0.197 A 
ATOM      4  O   UNL     1      76.429  61.025  -0.591  1.00  0.00    -0.289 OA
ATOM      5  C   UNL     1      74.790  61.105   1.077  1.00  0.00     0.107 A 
ATOM      6  C   UNL     1      73.652  60.919   0.237  1.00  0.00     0.134 A 
ATOM      7  C   UNL     1      72.366  61.019   0.786  1.00  0.00     0.093 A 
ATOM      8  C   UNL     1      72.180  61.241   2.152  1.00  0.00     0.123 A 
ATOM      9  C   UNL     1      73.285  61.373   2.989  1.00  0.00     0.094 A 
ATOM     10  C   UNL     1      74.580  61.313   2.467  1.00  0.00     0.146 A 
ATOM     11  O   UNL     1      75.606  61.463   3.298  1.00  0.00    -0.456 OA
ENDROOT
BRANCH   1  12
ATOM     12  C   UNL     1      77.940  61.620   3.926  1.00  0.00     0.021 A 
ATOM     13  C   UNL     1      79.183  60.998   3.735  1.00  0.00     0.016 A 
ATOM     14  C   UNL     1      80.199  61.134   4.683  1.00  0.00     0.051 A 
ATOM     15  C   UNL     1      79.994  61.884   5.845  1.00  0.00     0.157 A 
ATOM     16  C   UNL     1      77.728  62.363   5.102  1.00  0.00     0.062 A 
ATOM     17  C   UNL     1      78.740  62.502   6.060  1.00  0.00     0.158 A 
BRANCH  15  18
ATOM     18  O   UNL     1      81.053  61.985   6.751  1.00  0.00    -0.504 OA
ATOM     19  H   UNL     1      81.427  61.205   7.270  1.00  0.00     0.293 HD
ENDBRANCH  15  18
BRANCH  17  20
ATOM     20  O   UNL     1      78.457  63.252   7.204  1.00  0.00    -0.504 OA
ATOM     21  H   UNL     1      78.446  62.873   8.140  1.00  0.00     0.293 HD
ENDBRANCH  17  20
ENDBRANCH   1  12
BRANCH   6  22
ATOM     22  O   UNL     1      73.724  60.614  -1.125  1.00  0.00    -0.507 OA
ATOM     23  H   UNL     1      73.001  60.153  -1.656  1.00  0.00     0.293 HD
ENDBRANCH   6  22
BRANCH   8  24
ATOM     24  O   UNL     1      70.897  61.323   2.690  1.00  0.00    -0.508 OA
ATOM     25  H   UNL     1      70.517  62.202   3.022  1.00  0.00     0.293 HD
ENDBRANCH   8  24
TORSDOF 5
ENDMDL
MODEL 4
REMARK VINA RESULT:    -7.526      1.804      6.949
REMARK INTER + INTRA:          -9.149
REMARK INTER:                  -8.868
REMARK INTRA:                  -0.281
REMARK UNBOUND:                -0.303
REMARK SMILES O=c1cc(-c2ccc(O)c(O)c2)oc2cc(O)cc(O)c12
REMARK SMILES IDX 4 1 3 2 2 3 1 4 21 5 19 6 18 7 16 8 15 9 14 10 13 11 5 12
REMARK SMILES IDX 6 13 7 14 8 15 12 16 10 17 9 18 11 20 20 22 17 24
REMARK H PARENT 9 19 11 21 20 23 17 25
REMARK Flexibility Score: inf
ROOT
ATOM      1  C   UNL     1      84.248  63.637   8.720  1.00  0.00     0.138 A 
ATOM      2  C   UNL     1      84.510  64.793   7.973  1.00  0.00     0.100 A 
ATOM      3  C   UNL     1      83.617  65.188   6.977  1.00  0.00     0.197 A 
ATOM      4  O   UNL     1      83.853  66.261   6.363  1.00  0.00    -0.289 OA
ATOM      5  C   UNL     1      82.472  64.403   6.704  1.00  0.00     0.107 A 
ATOM      6  C   UNL     1      81.510  64.690   5.690  1.00  0.00     0.134 A 
ATOM      7  C   UNL     1      80.365  63.890   5.579  1.00  0.00     0.093 A 
ATOM      8  C   UNL     1      80.176  62.781   6.408  1.00  0.00     0.123 A 
ATOM      9  C   UNL     1      81.135  62.463   7.367  1.00  0.00     0.094 A 
ATOM     10  C   UNL     1      82.271  63.261   7.526  1.00  0.00     0.146 A 
ATOM     11  O   UNL     1      83.151  62.932   8.466  1.00  0.00    -0.456 OA
ENDROOT
BRANCH   1  12
ATOM     12  C   UNL     1      85.165  63.166   9.789  1.00  0.00     0.021 A 
ATOM     13  C   UNL     1      85.429  61.794   9.918  1.00  0.00     0.016 A 
ATOM     14  C   UNL     1      86.283  61.326  10.919  1.00  0.00     0.051 A 
ATOM     15  C   UNL     1      86.884  62.214  11.817  1.00  0.00     0.157 A 
ATOM     16  C   UNL     1      85.758  64.059  10.702  1.00  0.00     0.062 A 
ATOM     17  C   UNL     1      86.613  63.598  11.711  1.00  0.00     0.158 A 
BRANCH  15  18
ATOM     18  O   UNL     1      87.732  61.681  12.791  1.00  0.00    -0.504 OA
ATOM     19  H   UNL     1      88.080  60.734  12.778  1.00  0.00     0.293 HD
ENDBRANCH  15  18
BRANCH  17  20
ATOM     20  O   UNL     1      87.162  64.541  12.582  1.00  0.00    -0.504 OA
ATOM     21  H   UNL     1      86.622  65.083  13.242  1.00  0.00     0.293 HD
ENDBRANCH  17  20
ENDBRANCH   1  12
BRANCH   6  22
ATOM     22  O   UNL     1      81.638  65.723   4.758  1.00  0.00    -0.507 OA
ATOM     23  H   UNL     1      81.173  65.759   3.864  1.00  0.00     0.293 HD
ENDBRANCH   6  22
BRANCH   8  24
ATOM     24  O   UNL     1      79.041  61.983   6.280  1.00  0.00    -0.508 OA
ATOM     25  H   UNL     1      78.260  62.262   5.698  1.00  0.00     0.293 HD
ENDBRANCH   8  24
TORSDOF 5
ENDMDL
MODEL 5
REMARK VINA RESULT:    -7.520      8.175     11.404
REMARK INTER + INTRA:          -9.142
REMARK INTER:                  -8.867
REMARK INTRA:                  -0.275
REMARK UNBOUND:                -0.303
REMARK SMILES O=c1cc(-c2ccc(O)c(O)c2)oc2cc(O)cc(O)c12
REMARK SMILES IDX 4 1 3 2 2 3 1 4 21 5 19 6 18 7 16 8 15 9 14 10 13 11 5 12
REMARK SMILES IDX 6 13 7 14 8 15 12 16 10 17 9 18 11 20 20 22 17 24
REMARK H PARENT 9 19 11 21 20 23 17 25
REMARK Flexibility Score: inf
ROOT
ATOM      1  C   UNL     1      75.663  61.699   1.457  1.00  0.00     0.138 A 
ATOM      2  C   UNL     1      76.251  61.081   2.569  1.00  0.00     0.100 A 
ATOM      3  C   UNL     1      77.442  61.587   3.090  1.00  0.00     0.197 A 
ATOM      4  O   UNL     1      77.914  61.044   4.122  1.00  0.00    -0.289 OA
ATOM      5  C   UNL     1      78.067  62.696   2.472  1.00  0.00     0.107 A 
ATOM      6  C   UNL     1      79.301  63.276   2.895  1.00  0.00     0.134 A 
ATOM      7  C   UNL     1      79.770  64.435   2.262  1.00  0.00     0.093 A 
ATOM      8  C   UNL     1      79.081  65.000   1.187  1.00  0.00     0.123 A 
ATOM      9  C   UNL     1      77.903  64.412   0.734  1.00  0.00     0.094 A 
ATOM     10  C   UNL     1      77.389  63.276   1.365  1.00  0.00     0.146 A 
ATOM     11  O   UNL     1      76.253  62.758   0.913  1.00  0.00    -0.456 OA
ENDROOT
BRANCH   1  12
ATOM     12  C   UNL     1      74.398  61.201   0.858  1.00  0.00     0.021 A 
ATOM     13  C   UNL     1      74.328  60.983  -0.526  1.00  0.00     0.016 A 
ATOM     14  C   UNL     1      73.149  60.522  -1.114  1.00  0.00     0.051 A 
ATOM     15  C   UNL     1      72.012  60.277  -0.337  1.00  0.00     0.157 A 
ATOM     16  C   UNL     1      73.250  60.970   1.640  1.00  0.00     0.062 A 
ATOM     17  C   UNL     1      72.062  60.510   1.057  1.00  0.00     0.158 A 
BRANCH  15  18
ATOM     18  O   UNL     1      70.867  59.811  -0.986  1.00  0.00    -0.504 OA
ATOM     19  H   UNL     1      70.163  60.413  -1.389  1.00  0.00     0.293 HD
ENDBRANCH  15  18
BRANCH  17  20
ATOM     20  O   UNL     1      70.963  60.305   1.894  1.00  0.00    -0.504 OA
ATOM     21  H   UNL     1      70.503  61.039   2.414  1.00  0.00     0.293 HD
ENDBRANCH  17  20
ENDBRANCH   1  12
BRANCH   6  22
ATOM     22  O   UNL     1      80.109  62.749   3.905  1.00  0.00    -0.507 OA
ATOM     23  H   UNL     1      80.947  63.181   4.264  1.00  0.00     0.293 HD
ENDBRANCH   6  22
BRANCH   8  24
ATOM     24  O   UNL     1      79.565  66.144   0.555  1.00  0.00    -0.508 OA
ATOM     25  H   UNL     1      80.558  66.339   0.499  1.00  0.00     0.293 HD
ENDBRANCH   8  24
TORSDOF 5
ENDMDL
MODEL 6
REMARK VINA RESULT:    -7.490      1.435      2.871
REMARK INTER + INTRA:          -9.106
REMARK INTER:                  -8.816
REMARK INTRA:                  -0.291
REMARK UNBOUND:                -0.303
REMARK SMILES O=c1cc(-c2ccc(O)c(O)c2)oc2cc(O)cc(O)c12
REMARK SMILES IDX 4 1 3 2 2 3 1 4 21 5 19 6 18 7 16 8 15 9 14 10 13 11 5 12
REMARK SMILES IDX 6 13 7 14 8 15 12 16 10 17 9 18 11 20 20 22 17 24
REMARK H PARENT 9 19 11 21 20 23 17 25
REMARK Flexibility Score: inf
ROOT
ATOM      1  C   UNL     1      82.538  63.037   8.405  1.00  0.00     0.138 A 
ATOM      2  C   UNL     1      83.494  62.038   8.624  1.00  0.00     0.100 A 
ATOM      3  C   UNL     1      84.593  62.301   9.444  1.00  0.00     0.197 A 
ATOM      4  O   UNL     1      85.404  61.365   9.665  1.00  0.00    -0.289 OA
ATOM      5  C   UNL     1      84.752  63.584  10.018  1.00  0.00     0.107 A 
ATOM      6  C   UNL     1      85.849  63.977  10.843  1.00  0.00     0.134 A 
ATOM      7  C   UNL     1      85.846  65.247  11.435  1.00  0.00     0.093 A 
ATOM      8  C   UNL     1      84.816  66.157  11.186  1.00  0.00     0.123 A 
ATOM      9  C   UNL     1      83.767  65.801  10.342  1.00  0.00     0.094 A 
ATOM     10  C   UNL     1      83.722  64.530   9.764  1.00  0.00     0.146 A 
ATOM     11  O   UNL     1      82.694  64.225   8.980  1.00  0.00    -0.456 OA
ENDROOT
BRANCH   1  12
ATOM     12  C   UNL     1      81.352  62.814   7.539  1.00  0.00     0.021 A 
ATOM     13  C   UNL     1      80.190  63.571   7.752  1.00  0.00     0.016 A 
ATOM     14  C   UNL     1      79.060  63.376   6.956  1.00  0.00     0.051 A 
ATOM     15  C   UNL     1      79.060  62.417   5.938  1.00  0.00     0.157 A 
ATOM     16  C   UNL     1      81.349  61.838   6.525  1.00  0.00     0.062 A 
ATOM     17  C   UNL     1      80.218  61.634   5.724  1.00  0.00     0.158 A 
BRANCH  15  18
ATOM     18  O   UNL     1      77.899  62.276   5.175  1.00  0.00    -0.504 OA
ATOM     19  H   UNL     1      77.884  62.285   4.165  1.00  0.00     0.293 HD
ENDBRANCH  15  18
BRANCH  17  20
ATOM     20  O   UNL     1      80.287  60.646   4.739  1.00  0.00    -0.504 OA
ATOM     21  H   UNL     1      79.909  60.749   3.807  1.00  0.00     0.293 HD
ENDBRANCH  17  20
ENDBRANCH   1  12
BRANCH   6  22
ATOM     22  O   UNL     1      86.967  63.177  11.094  1.00  0.00    -0.507 OA
ATOM     23  H   UNL     1      87.026  62.471  11.811  1.00  0.00     0.293 HD
ENDBRANCH   6  22
BRANCH   8  24
ATOM     24  O   UNL     1      84.830  67.424  11.767  1.00  0.00    -0.508 OA
ATOM     25  H   UNL     1      84.545  68.247  11.250  1.00  0.00     0.293 HD
ENDBRANCH   8  24
TORSDOF 5
ENDMDL
MODEL 7
REMARK VINA RESULT:    -7.203      1.497      2.237
REMARK INTER + INTRA:          -8.769
REMARK INTER:                  -8.482
REMARK INTRA:                  -0.288
REMARK UNBOUND:                -0.303
REMARK SMILES O=c1cc(-c2ccc(O)c(O)c2)oc2cc(O)cc(O)c12
REMARK SMILES IDX 4 1 3 2 2 3 1 4 21 5 19 6 18 7 16 8 15 9 14 10 13 11 5 12
REMARK SMILES IDX 6 13 7 14 8 15 12 16 10 17 9 18 11 20 20 22 17 24
REMARK H PARENT 9 19 11 21 20 23 17 25
REMARK Flexibility Score: inf
ROOT
ATOM      1  C   UNL     1      81.515  63.369   7.499  1.00  0.00     0.138 A 
ATOM      2  C   UNL     1      81.694  64.731   7.772  1.00  0.00     0.100 A 
ATOM      3  C   UNL     1      82.741  65.139   8.598  1.00  0.00     0.197 A 
ATOM      4  O   UNL     1      82.908  66.373   8.778  1.00  0.00    -0.289 OA
ATOM      5  C   UNL     1      83.594  64.173   9.183  1.00  0.00     0.107 A 
ATOM      6  C   UNL     1      84.674  64.469  10.068  1.00  0.00     0.134 A 
ATOM      7  C   UNL     1      85.510  63.433  10.506  1.00  0.00     0.093 A 
ATOM      8  C   UNL     1      85.271  62.107  10.138  1.00  0.00     0.123 A 
ATOM      9  C   UNL     1      84.189  61.802   9.315  1.00  0.00     0.094 A 
ATOM     10  C   UNL     1      83.357  62.816   8.833  1.00  0.00     0.146 A 
ATOM     11  O   UNL     1      82.348  62.483   8.036  1.00  0.00    -0.456 OA
ENDROOT
BRANCH   1  12
ATOM     12  C   UNL     1      80.415  62.878   6.630  1.00  0.00     0.021 A 
ATOM     13  C   UNL     1      79.100  63.301   6.876  1.00  0.00     0.016 A 
ATOM     14  C   UNL     1      78.048  62.850   6.078  1.00  0.00     0.051 A 
ATOM     15  C   UNL     1      78.281  61.960   5.025  1.00  0.00     0.157 A 
ATOM     16  C   UNL     1      80.650  61.971   5.580  1.00  0.00     0.062 A 
ATOM     17  C   UNL     1      79.599  61.510   4.776  1.00  0.00     0.158 A 
BRANCH  15  18
ATOM     18  O   UNL     1      77.186  61.551   4.261  1.00  0.00    -0.504 OA
ATOM     19  H   UNL     1      76.266  61.383   4.640  1.00  0.00     0.293 HD
ENDBRANCH  15  18
BRANCH  17  20
ATOM     20  O   UNL     1      79.907  60.610   3.754  1.00  0.00    -0.504 OA
ATOM     21  H   UNL     1      80.839  60.459   3.395  1.00  0.00     0.293 HD
ENDBRANCH  17  20
ENDBRANCH   1  12
BRANCH   6  22
ATOM     22  O   UNL     1      84.955  65.745  10.563  1.00  0.00    -0.507 OA
ATOM     23  H   UNL     1      84.265  66.451  10.771  1.00  0.00     0.293 HD
ENDBRANCH   6  22
BRANCH   8  24
ATOM     24  O   UNL     1      86.099  61.083  10.591  1.00  0.00    -0.508 OA
ATOM     25  H   UNL     1      86.082  60.161  10.169  1.00  0.00     0.293 HD
ENDBRANCH   8  24
TORSDOF 5
ENDMDL
MODEL 8
REMARK VINA RESULT:    -7.193      6.232      9.311
REMARK INTER + INTRA:          -8.758
REMARK INTER:                  -8.445
REMARK INTRA:                  -0.313
REMARK UNBOUND:                -0.303
REMARK SMILES O=c1cc(-c2ccc(O)c(O)c2)oc2cc(O)cc(O)c12
REMARK SMILES IDX 4 1 3 2 2 3 1 4 21 5 19 6 18 7 16 8 15 9 14 10 13 11 5 12
REMARK SMILES IDX 6 13 7 14 8 15 12 16 10 17 9 18 11 20 20 22 17 24
REMARK H PARENT 9 19 11 21 20 23 17 25
REMARK Flexibility Score: inf
ROOT
ATOM      1  C   UNL     1      76.732  61.917   3.055  1.00  0.00     0.138 A 
ATOM      2  C   UNL     1      76.794  61.823   4.451  1.00  0.00     0.100 A 
ATOM      3  C   UNL     1      77.988  62.118   5.111  1.00  0.00     0.197 A 
ATOM      4  O   UNL     1      77.995  62.078   6.368  1.00  0.00    -0.289 OA
ATOM      5  C   UNL     1      79.135  62.476   4.364  1.00  0.00     0.107 A 
ATOM      6  C   UNL     1      80.415  62.766   4.926  1.00  0.00     0.134 A 
ATOM      7  C   UNL     1      81.452  63.205   4.091  1.00  0.00     0.093 A 
ATOM      8  C   UNL     1      81.271  63.308   2.710  1.00  0.00     0.123 A 
ATOM      9  C   UNL     1      80.040  62.979   2.146  1.00  0.00     0.094 A 
ATOM     10  C   UNL     1      78.976  62.572   2.955  1.00  0.00     0.146 A 
ATOM     11  O   UNL     1      77.814  62.285   2.378  1.00  0.00    -0.456 OA
ENDROOT
BRANCH   1  12
ATOM     12  C   UNL     1      75.489  61.611   2.301  1.00  0.00     0.021 A 
ATOM     13  C   UNL     1      74.258  61.600   2.974  1.00  0.00     0.016 A 
ATOM     14  C   UNL     1      73.077  61.309   2.290  1.00  0.00     0.051 A 
ATOM     15  C   UNL     1      73.098  61.013   0.923  1.00  0.00     0.157 A 
ATOM     16  C   UNL     1      75.514  61.299   0.928  1.00  0.00     0.062 A 
ATOM     17  C   UNL     1      74.334  61.002   0.235  1.00  0.00     0.158 A 
BRANCH  15  18
ATOM     18  O   UNL     1      71.881  60.737   0.297  1.00  0.00    -0.504 OA
ATOM     19  H   UNL     1      71.704  59.907  -0.251  1.00  0.00     0.293 HD
ENDBRANCH  15  18
BRANCH  17  20
ATOM     20  O   UNL     1      74.436  60.700  -1.125  1.00  0.00    -0.504 OA
ATOM     21  H   UNL     1      73.896  59.981  -1.586  1.00  0.00     0.293 HD
ENDBRANCH  17  20
ENDBRANCH   1  12
BRANCH   6  22
ATOM     22  O   UNL     1      80.728  62.620   6.280  1.00  0.00    -0.507 OA
ATOM     23  H   UNL     1      80.872  63.380   6.927  1.00  0.00     0.293 HD
ENDBRANCH   6  22
BRANCH   8  24
ATOM     24  O   UNL     1      82.312  63.731   1.886  1.00  0.00    -0.508 OA
ATOM     25  H   UNL     1      82.599  64.702   1.850  1.00  0.00     0.293 HD
ENDBRANCH   8  24
TORSDOF 5
ENDMDL
MODEL 9
REMARK VINA RESULT:    -7.043      2.714      7.174
REMARK INTER + INTRA:          -8.581
REMARK INTER:                  -8.314
REMARK INTRA:                  -0.267
REMARK UNBOUND:                -0.303
REMARK SMILES O=c1cc(-c2ccc(O)c(O)c2)oc2cc(O)cc(O)c12
REMARK SMILES IDX 4 1 3 2 2 3 1 4 21 5 19 6 18 7 16 8 15 9 14 10 13 11 5 12
REMARK SMILES IDX 6 13 7 14 8 15 12 16 10 17 9 18 11 20 20 22 17 24
REMARK H PARENT 9 19 11 21 20 23 17 25
REMARK Flexibility Score: inf
ROOT
ATOM      1  C   UNL     1      84.327  64.330   8.947  1.00  0.00     0.138 A 
ATOM      2  C   UNL     1      83.070  63.718   9.034  1.00  0.00     0.100 A 
ATOM      3  C   UNL     1      82.179  63.815   7.965  1.00  0.00     0.197 A 
ATOM      4  O   UNL     1      81.080  63.208   8.053  1.00  0.00    -0.289 OA
ATOM      5  C   UNL     1      82.536  64.559   6.816  1.00  0.00     0.107 A 
ATOM      6  C   UNL     1      81.696  64.755   5.678  1.00  0.00     0.134 A 
ATOM      7  C   UNL     1      82.198  65.430   4.558  1.00  0.00     0.093 A 
ATOM      8  C   UNL     1      83.488  65.965   4.556  1.00  0.00     0.123 A 
ATOM      9  C   UNL     1      84.298  65.823   5.681  1.00  0.00     0.094 A 
ATOM     10  C   UNL     1      83.839  65.125   6.801  1.00  0.00     0.146 A 
ATOM     11  O   UNL     1      84.651  64.998   7.845  1.00  0.00    -0.456 OA
ENDROOT
BRANCH   1  12
ATOM     12  C   UNL     1      85.313  64.262  10.056  1.00  0.00     0.021 A 
ATOM     13  C   UNL     1      85.740  65.448  10.673  1.00  0.00     0.016 A 
ATOM     14  C   UNL     1      86.671  65.412  11.712  1.00  0.00     0.051 A 
ATOM     15  C   UNL     1      87.202  64.196  12.153  1.00  0.00     0.157 A 
ATOM     16  C   UNL     1      85.858  63.039  10.488  1.00  0.00     0.062 A 
ATOM     17  C   UNL     1      86.795  62.994  11.528  1.00  0.00     0.158 A 
BRANCH  15  18
ATOM     18  O   UNL     1      88.125  64.229  13.201  1.00  0.00    -0.504 OA
ATOM     19  H   UNL     1      88.111  63.592  13.984  1.00  0.00     0.293 HD
ENDBRANCH  15  18
BRANCH  17  20
ATOM     20  O   UNL     1      87.294  61.745  11.902  1.00  0.00    -0.504 OA
ATOM     21  H   UNL     1      86.752  61.039  12.382  1.00  0.00     0.293 HD
ENDBRANCH  17  20
ENDBRANCH   1  12
BRANCH   6  22
ATOM     22  O   UNL     1      80.366  64.332   5.604  1.00  0.00    -0.507 OA
ATOM     23  H   UNL     1      79.727  64.554   4.856  1.00  0.00     0.293 HD
ENDBRANCH   6  22
BRANCH   8  24
ATOM     24  O   UNL     1      83.973  66.648   3.442  1.00  0.00    -0.508 OA
ATOM     25  H   UNL     1      84.821  66.357   2.969  1.00  0.00     0.293 HD
ENDBRANCH   8  24
TORSDOF 5
ENDMDL
