MODEL 1
REMARK VINA RESULT:    -3.902      0.000      0.000
REMARK INTER + INTRA:         -15.824
REMARK INTER:                 -10.290
REMARK INTRA:                  -5.535
REMARK UNBOUND:                -5.535
REMARK SMILES CCCCCCCCCCCCCCCCCCCCCCCCCCCCCC(=O)[O-]
REMARK SMILES IDX 16 1 17 2 18 3 19 4 20 5 21 6 22 7 23 8 24 9 25 10 26 11
REMARK SMILES IDX 27 12 28 13 29 14 30 15 31 16 32 17 15 18 14 19 13 20 12 21
REMARK SMILES IDX 11 22 10 23 9 24 8 25 7 26 6 27 5 28 4 29 3 30 2 31 1 32
REMARK H PARENT
REMARK Flexibility Score: inf
ROOT
ATOM      1  C   UNL     1      22.184  -5.262  18.701  1.00  0.00     0.000 C 
ENDROOT
BRANCH   1   2
ATOM      2  C   UNL     1      22.056  -3.974  19.540  1.00  0.00     0.000 C 
BRANCH   2   3
ATOM      3  C   UNL     1      21.893  -2.666  18.740  1.00  0.00     0.000 C 
BRANCH   3   4
ATOM      4  C   UNL     1      23.150  -1.782  18.749  1.00  0.00     0.000 C 
BRANCH   4   5
ATOM      5  C   UNL     1      24.015  -2.044  17.510  1.00  0.00     0.000 C 
BRANCH   5   6
ATOM      6  C   UNL     1      25.366  -2.667  17.899  1.00  0.00     0.000 C 
BRANCH   6   7
ATOM      7  C   UNL     1      25.614  -4.015  17.204  1.00  0.00     0.000 C 
BRANCH   7   8
ATOM      8  C   UNL     1      25.743  -5.180  18.198  1.00  0.00     0.000 C 
BRANCH   8   9
ATOM      9  C   UNL     1      25.433  -6.518  17.509  1.00  0.00     0.000 C 
BRANCH   9  10
ATOM     10  C   UNL     1      25.075  -6.359  16.021  1.00  0.00     0.000 C 
BRANCH  10  11
ATOM     11  C   UNL     1      24.252  -7.517  15.422  1.00  0.00     0.000 C 
BRANCH  11  12
ATOM     12  C   UNL     1      24.870  -8.183  14.175  1.00  0.00     0.000 C 
BRANCH  12  13
ATOM     13  C   UNL     1      24.839  -9.725  14.177  1.00  0.00     0.006 C 
BRANCH  13  14
ATOM     14  C   UNL     1      23.793 -10.337  15.121  1.00  0.00     0.053 C 
BRANCH  14  15
ATOM     15  C   UNL     1      24.407 -11.302  16.088  1.00  0.00     0.041 C 
ATOM     16  O   UNL     1      25.050 -10.877  17.085  1.00  0.00    -0.550 OA
ATOM     17  O   UNL     1      24.247 -12.670  15.904  1.00  0.00    -0.550 OA
ENDBRANCH  14  15
ENDBRANCH  13  14
ENDBRANCH  12  13
ENDBRANCH  11  12
ENDBRANCH  10  11
ENDBRANCH   9  10
ENDBRANCH   8   9
ENDBRANCH   7   8
ENDBRANCH   6   7
ENDBRANCH   5   6
ENDBRANCH   4   5
ENDBRANCH   3   4
ENDBRANCH   2   3
ENDBRANCH   1   2
BRANCH   1  18
ATOM     18  C   UNL     1      21.815  -5.071  17.221  1.00  0.00     0.000 C 
BRANCH  18  19
ATOM     19  C   UNL     1      20.734  -6.053  16.738  1.00  0.00     0.000 C 
BRANCH  19  20
ATOM     20  C   UNL     1      20.653  -7.363  17.547  1.00  0.00     0.000 C 
BRANCH  20  21
ATOM     21  C   UNL     1      20.986  -8.615  16.710  1.00  0.00     0.000 C 
BRANCH  21  22
ATOM     22  C   UNL     1      19.941  -9.740  16.871  1.00  0.00     0.000 C 
BRANCH  22  23
ATOM     23  C   UNL     1      20.481 -11.026  17.529  1.00  0.00     0.000 C 
BRANCH  23  24
ATOM     24  C   UNL     1      20.725 -12.210  16.575  1.00  0.00    -0.000 C 
BRANCH  24  25
ATOM     25  C   UNL     1      19.863 -12.211  15.298  1.00  0.00    -0.000 C 
BRANCH  25  26
ATOM     26  C   UNL     1      20.689 -11.994  14.018  1.00  0.00    -0.000 C 
BRANCH  26  27
ATOM     27  C   UNL     1      19.962 -11.115  12.984  1.00  0.00    -0.000 C 
BRANCH  27  28
ATOM     28  C   UNL     1      20.083  -9.613  13.298  1.00  0.00    -0.000 C 
BRANCH  28  29
ATOM     29  C   UNL     1      21.329  -8.979  12.659  1.00  0.00    -0.000 C 
BRANCH  29  30
ATOM     30  C   UNL     1      21.471  -7.485  12.992  1.00  0.00    -0.000 C 
BRANCH  30  31
ATOM     31  C   UNL     1      20.094  -6.824  13.132  1.00  0.00    -0.003 C 
ATOM     32  C   UNL     1      20.210  -5.304  13.163  1.00  0.00     0.004 C 
ENDBRANCH  30  31
ENDBRANCH  29  30
ENDBRANCH  28  29
ENDBRANCH  27  28
ENDBRANCH  26  27
ENDBRANCH  25  26
ENDBRANCH  24  25
ENDBRANCH  23  24
ENDBRANCH  22  23
ENDBRANCH  21  22
ENDBRANCH  20  21
ENDBRANCH  19  20
ENDBRANCH  18  19
ENDBRANCH   1  18
TORSDOF 28
ENDMDL
MODEL 2
REMARK VINA RESULT:    -3.838      2.272      4.773
REMARK INTER + INTRA:         -15.654
REMARK INTER:                 -10.216
REMARK INTRA:                  -5.438
REMARK UNBOUND:                -5.535
REMARK SMILES CCCCCCCCCCCCCCCCCCCCCCCCCCCCCC(=O)[O-]
REMARK SMILES IDX 16 1 17 2 18 3 19 4 20 5 21 6 22 7 23 8 24 9 25 10 26 11
REMARK SMILES IDX 27 12 28 13 29 14 30 15 31 16 32 17 15 18 14 19 13 20 12 21
REMARK SMILES IDX 11 22 10 23 9 24 8 25 7 26 6 27 5 28 4 29 3 30 2 31 1 32
REMARK H PARENT
REMARK Flexibility Score: inf
ROOT
ATOM      1  C   UNL     1      25.488  -6.419  17.469  1.00  0.00     0.000 C 
ENDROOT
BRANCH   1   2
ATOM      2  C   UNL     1      25.829  -5.001  17.970  1.00  0.00     0.000 C 
BRANCH   2   3
ATOM      3  C   UNL     1      25.180  -3.840  17.190  1.00  0.00     0.000 C 
BRANCH   3   4
ATOM      4  C   UNL     1      25.344  -2.474  17.876  1.00  0.00     0.000 C 
BRANCH   4   5
ATOM      5  C   UNL     1      24.016  -1.708  17.900  1.00  0.00     0.000 C 
BRANCH   5   6
ATOM      6  C   UNL     1      22.820  -2.670  17.814  1.00  0.00     0.000 C 
BRANCH   6   7
ATOM      7  C   UNL     1      21.825  -2.478  18.970  1.00  0.00     0.000 C 
BRANCH   7   8
ATOM      8  C   UNL     1      21.383  -3.808  19.599  1.00  0.00     0.000 C 
BRANCH   8   9
ATOM      9  C   UNL     1      22.444  -4.896  19.375  1.00  0.00     0.000 C 
BRANCH   9  10
ATOM     10  C   UNL     1      21.998  -5.972  18.369  1.00  0.00     0.000 C 
BRANCH  10  11
ATOM     11  C   UNL     1      20.566  -6.503  18.576  1.00  0.00     0.000 C 
BRANCH  11  12
ATOM     12  C   UNL     1      19.618  -6.321  17.374  1.00  0.00     0.000 C 
BRANCH  12  13
ATOM     13  C   UNL     1      20.268  -5.708  16.117  1.00  0.00     0.006 C 
BRANCH  13  14
ATOM     14  C   UNL     1      19.705  -6.239  14.789  1.00  0.00     0.053 C 
BRANCH  14  15
ATOM     15  C   UNL     1      20.642  -5.996  13.647  1.00  0.00     0.041 C 
ATOM     16  O   UNL     1      21.760  -6.575  13.609  1.00  0.00    -0.550 OA
ATOM     17  O   UNL     1      20.270  -5.151  12.608  1.00  0.00    -0.550 OA
ENDBRANCH  14  15
ENDBRANCH  13  14
ENDBRANCH  12  13
ENDBRANCH  11  12
ENDBRANCH  10  11
ENDBRANCH   9  10
ENDBRANCH   8   9
ENDBRANCH   7   8
ENDBRANCH   6   7
ENDBRANCH   5   6
ENDBRANCH   4   5
ENDBRANCH   3   4
ENDBRANCH   2   3
ENDBRANCH   1   2
BRANCH   1  18
ATOM     18  C   UNL     1      24.890  -6.444  16.052  1.00  0.00     0.000 C 
BRANCH  18  19
ATOM     19  C   UNL     1      24.074  -7.716  15.766  1.00  0.00     0.000 C 
BRANCH  19  20
ATOM     20  C   UNL     1      24.316  -8.868  16.761  1.00  0.00     0.000 C 
BRANCH  20  21
ATOM     21  C   UNL     1      23.067  -9.742  16.994  1.00  0.00     0.000 C 
BRANCH  21  22
ATOM     22  C   UNL     1      21.812  -9.199  16.275  1.00  0.00     0.000 C 
BRANCH  22  23
ATOM     23  C   UNL     1      20.494  -9.890  16.679  1.00  0.00     0.000 C 
BRANCH  23  24
ATOM     24  C   UNL     1      20.088 -11.104  15.823  1.00  0.00    -0.000 C 
BRANCH  24  25
ATOM     25  C   UNL     1      20.598 -12.465  16.335  1.00  0.00    -0.000 C 
BRANCH  25  26
ATOM     26  C   UNL     1      21.425 -13.229  15.286  1.00  0.00    -0.000 C 
BRANCH  26  27
ATOM     27  C   UNL     1      21.697 -12.394  14.023  1.00  0.00    -0.000 C 
BRANCH  27  28
ATOM     28  C   UNL     1      23.176 -12.435  13.595  1.00  0.00    -0.000 C 
BRANCH  28  29
ATOM     29  C   UNL     1      23.862 -11.065  13.720  1.00  0.00    -0.000 C 
BRANCH  29  30
ATOM     30  C   UNL     1      25.354 -11.179  14.067  1.00  0.00    -0.000 C 
BRANCH  30  31
ATOM     31  C   UNL     1      25.594 -12.300  15.085  1.00  0.00    -0.003 C 
ATOM     32  C   UNL     1      26.515 -11.840  16.210  1.00  0.00     0.004 C 
ENDBRANCH  30  31
ENDBRANCH  29  30
ENDBRANCH  28  29
ENDBRANCH  27  28
ENDBRANCH  26  27
ENDBRANCH  25  26
ENDBRANCH  24  25
ENDBRANCH  23  24
ENDBRANCH  22  23
ENDBRANCH  21  22
ENDBRANCH  20  21
ENDBRANCH  19  20
ENDBRANCH  18  19
ENDBRANCH   1  18
TORSDOF 28
ENDMDL
MODEL 3
REMARK VINA RESULT:    -3.837      1.581      7.029
REMARK INTER + INTRA:         -15.653
REMARK INTER:                 -10.431
REMARK INTRA:                  -5.222
REMARK UNBOUND:                -5.535
REMARK SMILES CCCCCCCCCCCCCCCCCCCCCCCCCCCCCC(=O)[O-]
REMARK SMILES IDX 16 1 17 2 18 3 19 4 20 5 21 6 22 7 23 8 24 9 25 10 26 11
REMARK SMILES IDX 27 12 28 13 29 14 30 15 31 16 32 17 15 18 14 19 13 20 12 21
REMARK SMILES IDX 11 22 10 23 9 24 8 25 7 26 6 27 5 28 4 29 3 30 2 31 1 32
REMARK H PARENT
REMARK Flexibility Score: inf
ROOT
ATOM      1  C   UNL     1      23.656  -7.615  14.331  1.00  0.00     0.000 C 
ENDROOT
BRANCH   1   2
ATOM      2  C   UNL     1      24.942  -8.430  14.092  1.00  0.00     0.000 C 
BRANCH   2   3
ATOM      3  C   UNL     1      24.856  -9.934  14.425  1.00  0.00     0.000 C 
BRANCH   3   4
ATOM      4  C   UNL     1      24.945 -10.233  15.930  1.00  0.00     0.000 C 
BRANCH   4   5
ATOM      5  C   UNL     1      23.652 -10.886  16.438  1.00  0.00     0.000 C 
BRANCH   5   6
ATOM      6  C   UNL     1      22.743  -9.853  17.123  1.00  0.00     0.000 C 
BRANCH   6   7
ATOM      7  C   UNL     1      21.286  -9.942  16.643  1.00  0.00     0.000 C 
BRANCH   7   8
ATOM      8  C   UNL     1      21.172 -10.331  15.161  1.00  0.00     0.000 C 
BRANCH   8   9
ATOM      9  C   UNL     1      19.869 -11.103  14.900  1.00  0.00     0.000 C 
BRANCH   9  10
ATOM     10  C   UNL     1      19.763 -12.398  15.726  1.00  0.00     0.000 C 
BRANCH  10  11
ATOM     11  C   UNL     1      21.046 -13.250  15.769  1.00  0.00     0.000 C 
BRANCH  11  12
ATOM     12  C   UNL     1      21.274 -14.153  14.539  1.00  0.00     0.000 C 
BRANCH  12  13
ATOM     13  C   UNL     1      22.689 -14.755  14.425  1.00  0.00     0.006 C 
BRANCH  13  14
ATOM     14  C   UNL     1      23.741 -13.797  13.846  1.00  0.00     0.053 C 
BRANCH  14  15
ATOM     15  C   UNL     1      24.987 -13.764  14.677  1.00  0.00     0.041 C 
ATOM     16  O   UNL     1      24.994 -14.270  15.830  1.00  0.00    -0.550 OA
ATOM     17  O   UNL     1      26.150 -13.200  14.166  1.00  0.00    -0.550 OA
ENDBRANCH  14  15
ENDBRANCH  13  14
ENDBRANCH  12  13
ENDBRANCH  11  12
ENDBRANCH  10  11
ENDBRANCH   9  10
ENDBRANCH   8   9
ENDBRANCH   7   8
ENDBRANCH   6   7
ENDBRANCH   5   6
ENDBRANCH   4   5
ENDBRANCH   3   4
ENDBRANCH   2   3
ENDBRANCH   1   2
BRANCH   1  18
ATOM     18  C   UNL     1      23.702  -6.749  15.601  1.00  0.00     0.000 C 
BRANCH  18  19
ATOM     19  C   UNL     1      25.135  -6.380  16.025  1.00  0.00     0.000 C 
BRANCH  19  20
ATOM     20  C   UNL     1      25.392  -6.457  17.543  1.00  0.00     0.000 C 
BRANCH  20  21
ATOM     21  C   UNL     1      25.774  -5.097  18.163  1.00  0.00     0.000 C 
BRANCH  21  22
ATOM     22  C   UNL     1      25.355  -3.898  17.286  1.00  0.00     0.000 C 
BRANCH  22  23
ATOM     23  C   UNL     1      25.351  -2.540  18.017  1.00  0.00     0.000 C 
BRANCH  23  24
ATOM     24  C   UNL     1      23.962  -1.950  18.321  1.00  0.00    -0.000 C 
BRANCH  24  25
ATOM     25  C   UNL     1      22.771  -2.852  17.941  1.00  0.00    -0.000 C 
BRANCH  25  26
ATOM     26  C   UNL     1      21.842  -3.151  19.130  1.00  0.00    -0.000 C 
BRANCH  26  27
ATOM     27  C   UNL     1      22.038  -4.569  19.694  1.00  0.00    -0.000 C 
BRANCH  27  28
ATOM     28  C   UNL     1      22.054  -5.645  18.592  1.00  0.00    -0.000 C 
BRANCH  28  29
ATOM     29  C   UNL     1      20.640  -6.026  18.124  1.00  0.00    -0.000 C 
BRANCH  29  30
ATOM     30  C   UNL     1      20.317  -5.494  16.720  1.00  0.00    -0.000 C 
BRANCH  30  31
ATOM     31  C   UNL     1      20.033  -6.648  15.750  1.00  0.00    -0.003 C 
ATOM     32  C   UNL     1      18.704  -7.326  16.068  1.00  0.00     0.004 C 
ENDBRANCH  30  31
ENDBRANCH  29  30
ENDBRANCH  28  29
ENDBRANCH  27  28
ENDBRANCH  26  27
ENDBRANCH  25  26
ENDBRANCH  24  25
ENDBRANCH  23  24
ENDBRANCH  22  23
ENDBRANCH  21  22
ENDBRANCH  20  21
ENDBRANCH  19  20
ENDBRANCH  18  19
ENDBRANCH   1  18
TORSDOF 28
ENDMDL
MODEL 4
REMARK VINA RESULT:    -3.801      9.485     12.042
REMARK INTER + INTRA:         -15.558
REMARK INTER:                  -9.970
REMARK INTRA:                  -5.589
REMARK UNBOUND:                -5.535
REMARK SMILES CCCCCCCCCCCCCCCCCCCCCCCCCCCCCC(=O)[O-]
REMARK SMILES IDX 16 1 17 2 18 3 19 4 20 5 21 6 22 7 23 8 24 9 25 10 26 11
REMARK SMILES IDX 27 12 28 13 29 14 30 15 31 16 32 17 15 18 14 19 13 20 12 21
REMARK SMILES IDX 11 22 10 23 9 24 8 25 7 26 6 27 5 28 4 29 3 30 2 31 1 32
REMARK H PARENT
REMARK Flexibility Score: inf
ROOT
ATOM      1  C   UNL     1      23.435  -0.122   6.100  1.00  0.00     0.000 C 
ENDROOT
BRANCH   1   2
ATOM      2  C   UNL     1      24.621   0.815   6.405  1.00  0.00     0.000 C 
BRANCH   2   3
ATOM      3  C   UNL     1      25.522   1.169   5.204  1.00  0.00     0.000 C 
BRANCH   3   4
ATOM      4  C   UNL     1      26.837   1.854   5.606  1.00  0.00     0.000 C 
BRANCH   4   5
ATOM      5  C   UNL     1      27.862   0.827   6.105  1.00  0.00     0.000 C 
BRANCH   5   6
ATOM      6  C   UNL     1      27.927   0.810   7.641  1.00  0.00     0.000 C 
BRANCH   6   7
ATOM      7  C   UNL     1      28.683  -0.413   8.184  1.00  0.00     0.000 C 
BRANCH   7   8
ATOM      8  C   UNL     1      28.056  -0.976   9.468  1.00  0.00     0.000 C 
BRANCH   8   9
ATOM      9  C   UNL     1      26.530  -1.086   9.325  1.00  0.00     0.000 C 
BRANCH   9  10
ATOM     10  C   UNL     1      25.808  -1.222  10.678  1.00  0.00     0.000 C 
BRANCH  10  11
ATOM     11  C   UNL     1      25.070   0.046  11.152  1.00  0.00     0.000 C 
BRANCH  11  12
ATOM     12  C   UNL     1      25.051   1.211  10.141  1.00  0.00     0.000 C 
BRANCH  12  13
ATOM     13  C   UNL     1      23.699   1.942  10.013  1.00  0.00     0.006 C 
BRANCH  13  14
ATOM     14  C   UNL     1      22.534   1.047   9.565  1.00  0.00     0.053 C 
BRANCH  14  15
ATOM     15  C   UNL     1      21.515   0.869  10.648  1.00  0.00     0.041 C 
ATOM     16  O   UNL     1      21.562   1.580  11.686  1.00  0.00    -0.550 OA
ATOM     17  O   UNL     1      20.495  -0.064  10.499  1.00  0.00    -0.550 OA
ENDBRANCH  14  15
ENDBRANCH  13  14
ENDBRANCH  12  13
ENDBRANCH  11  12
ENDBRANCH  10  11
ENDBRANCH   9  10
ENDBRANCH   8   9
ENDBRANCH   7   8
ENDBRANCH   6   7
ENDBRANCH   5   6
ENDBRANCH   4   5
ENDBRANCH   3   4
ENDBRANCH   2   3
ENDBRANCH   1   2
BRANCH   1  18
ATOM     18  C   UNL     1      22.346   0.526   5.228  1.00  0.00     0.000 C 
BRANCH  18  19
ATOM     19  C   UNL     1      20.928   0.038   5.575  1.00  0.00     0.000 C 
BRANCH  19  20
ATOM     20  C   UNL     1      20.799  -0.612   6.967  1.00  0.00     0.000 C 
BRANCH  20  21
ATOM     21  C   UNL     1      20.178  -2.023   6.922  1.00  0.00     0.000 C 
BRANCH  21  22
ATOM     22  C   UNL     1      21.040  -3.081   7.646  1.00  0.00     0.000 C 
BRANCH  22  23
ATOM     23  C   UNL     1      22.177  -2.499   8.510  1.00  0.00     0.000 C 
BRANCH  23  24
ATOM     24  C   UNL     1      23.572  -3.105   8.271  1.00  0.00    -0.000 C 
BRANCH  24  25
ATOM     25  C   UNL     1      23.908  -3.416   6.800  1.00  0.00    -0.000 C 
BRANCH  25  26
ATOM     26  C   UNL     1      25.390  -3.771   6.585  1.00  0.00    -0.000 C 
BRANCH  26  27
ATOM     27  C   UNL     1      26.236  -2.556   6.167  1.00  0.00    -0.000 C 
BRANCH  27  28
ATOM     28  C   UNL     1      27.581  -2.964   5.538  1.00  0.00    -0.000 C 
BRANCH  28  29
ATOM     29  C   UNL     1      28.169  -4.232   6.177  1.00  0.00    -0.000 C 
BRANCH  29  30
ATOM     30  C   UNL     1      28.879  -3.949   7.510  1.00  0.00    -0.000 C 
BRANCH  30  31
ATOM     31  C   UNL     1      29.123  -5.250   8.285  1.00  0.00    -0.003 C 
ATOM     32  C   UNL     1      28.292  -6.397   7.719  1.00  0.00     0.004 C 
ENDBRANCH  30  31
ENDBRANCH  29  30
ENDBRANCH  28  29
ENDBRANCH  27  28
ENDBRANCH  26  27
ENDBRANCH  25  26
ENDBRANCH  24  25
ENDBRANCH  23  24
ENDBRANCH  22  23
ENDBRANCH  21  22
ENDBRANCH  20  21
ENDBRANCH  19  20
ENDBRANCH  18  19
ENDBRANCH   1  18
TORSDOF 28
ENDMDL
MODEL 5
REMARK VINA RESULT:    -3.708      2.474      4.976
REMARK INTER + INTRA:         -15.313
REMARK INTER:                  -9.386
REMARK INTRA:                  -5.927
REMARK UNBOUND:                -5.535
REMARK SMILES CCCCCCCCCCCCCCCCCCCCCCCCCCCCCC(=O)[O-]
REMARK SMILES IDX 16 1 17 2 18 3 19 4 20 5 21 6 22 7 23 8 24 9 25 10 26 11
REMARK SMILES IDX 27 12 28 13 29 14 30 15 31 16 32 17 15 18 14 19 13 20 12 21
REMARK SMILES IDX 11 22 10 23 9 24 8 25 7 26 6 27 5 28 4 29 3 30 2 31 1 32
REMARK H PARENT
REMARK Flexibility Score: inf
ROOT
ATOM      1  C   UNL     1      24.933  -7.484  14.899  1.00  0.00     0.000 C 
ENDROOT
BRANCH   1   2
ATOM      2  C   UNL     1      24.537  -7.428  16.388  1.00  0.00     0.000 C 
BRANCH   2   3
ATOM      3  C   UNL     1      25.344  -6.443  17.259  1.00  0.00     0.000 C 
BRANCH   3   4
ATOM      4  C   UNL     1      25.276  -4.990  16.763  1.00  0.00     0.000 C 
BRANCH   4   5
ATOM      5  C   UNL     1      25.582  -4.006  17.900  1.00  0.00     0.000 C 
BRANCH   5   6
ATOM      6  C   UNL     1      25.017  -2.610  17.591  1.00  0.00     0.000 C 
BRANCH   6   7
ATOM      7  C   UNL     1      23.932  -2.180  18.591  1.00  0.00     0.000 C 
BRANCH   7   8
ATOM      8  C   UNL     1      22.547  -2.749  18.246  1.00  0.00     0.000 C 
BRANCH   8   9
ATOM      9  C   UNL     1      22.058  -3.697  19.352  1.00  0.00     0.000 C 
BRANCH   9  10
ATOM     10  C   UNL     1      22.258  -5.182  19.000  1.00  0.00     0.000 C 
BRANCH  10  11
ATOM     11  C   UNL     1      21.490  -5.665  17.754  1.00  0.00     0.000 C 
BRANCH  11  12
ATOM     12  C   UNL     1      21.101  -7.158  17.761  1.00  0.00     0.000 C 
BRANCH  12  13
ATOM     13  C   UNL     1      19.585  -7.438  17.750  1.00  0.00     0.006 C 
BRANCH  13  14
ATOM     14  C   UNL     1      19.073  -8.110  16.467  1.00  0.00     0.053 C 
BRANCH  14  15
ATOM     15  C   UNL     1      18.239  -7.180  15.641  1.00  0.00     0.041 C 
ATOM     16  O   UNL     1      18.485  -5.945  15.635  1.00  0.00    -0.550 OA
ATOM     17  O   UNL     1      17.208  -7.681  14.855  1.00  0.00    -0.550 OA
ENDBRANCH  14  15
ENDBRANCH  13  14
ENDBRANCH  12  13
ENDBRANCH  11  12
ENDBRANCH  10  11
ENDBRANCH   9  10
ENDBRANCH   8   9
ENDBRANCH   7   8
ENDBRANCH   6   7
ENDBRANCH   5   6
ENDBRANCH   4   5
ENDBRANCH   3   4
ENDBRANCH   2   3
ENDBRANCH   1   2
BRANCH   1  18
ATOM     18  C   UNL     1      23.751  -7.775  13.959  1.00  0.00     0.000 C 
BRANCH  18  19
ATOM     19  C   UNL     1      22.426  -7.168  14.452  1.00  0.00     0.000 C 
BRANCH  19  20
ATOM     20  C   UNL     1      21.226  -7.407  13.514  1.00  0.00     0.000 C 
BRANCH  20  21
ATOM     21  C   UNL     1      21.123  -8.863  13.018  1.00  0.00     0.000 C 
BRANCH  21  22
ATOM     22  C   UNL     1      19.683  -9.267  12.634  1.00  0.00     0.000 C 
BRANCH  22  23
ATOM     23  C   UNL     1      19.076 -10.384  13.507  1.00  0.00     0.000 C 
BRANCH  23  24
ATOM     24  C   UNL     1      20.090 -11.318  14.193  1.00  0.00    -0.000 C 
BRANCH  24  25
ATOM     25  C   UNL     1      19.749 -11.700  15.647  1.00  0.00    -0.000 C 
BRANCH  25  26
ATOM     26  C   UNL     1      20.968 -11.641  16.584  1.00  0.00    -0.000 C 
BRANCH  26  27
ATOM     27  C   UNL     1      21.900 -10.457  16.271  1.00  0.00    -0.000 C 
BRANCH  27  28
ATOM     28  C   UNL     1      23.345 -10.904  15.983  1.00  0.00    -0.000 C 
BRANCH  28  29
ATOM     29  C   UNL     1      23.434 -12.389  15.594  1.00  0.00    -0.000 C 
BRANCH  29  30
ATOM     30  C   UNL     1      23.617 -12.596  14.083  1.00  0.00    -0.000 C 
BRANCH  30  31
ATOM     31  C   UNL     1      23.907 -11.264  13.380  1.00  0.00    -0.003 C 
ATOM     32  C   UNL     1      25.346 -11.202  12.880  1.00  0.00     0.004 C 
ENDBRANCH  30  31
ENDBRANCH  29  30
ENDBRANCH  28  29
ENDBRANCH  27  28
ENDBRANCH  26  27
ENDBRANCH  25  26
ENDBRANCH  24  25
ENDBRANCH  23  24
ENDBRANCH  22  23
ENDBRANCH  21  22
ENDBRANCH  20  21
ENDBRANCH  19  20
ENDBRANCH  18  19
ENDBRANCH   1  18
TORSDOF 28
ENDMDL
MODEL 6
REMARK VINA RESULT:    -3.690      2.043      4.739
REMARK INTER + INTRA:         -15.265
REMARK INTER:                  -9.593
REMARK INTRA:                  -5.672
REMARK UNBOUND:                -5.535
REMARK SMILES CCCCCCCCCCCCCCCCCCCCCCCCCCCCCC(=O)[O-]
REMARK SMILES IDX 16 1 17 2 18 3 19 4 20 5 21 6 22 7 23 8 24 9 25 10 26 11
REMARK SMILES IDX 27 12 28 13 29 14 30 15 31 16 32 17 15 18 14 19 13 20 12 21
REMARK SMILES IDX 11 22 10 23 9 24 8 25 7 26 6 27 5 28 4 29 3 30 2 31 1 32
REMARK H PARENT
REMARK Flexibility Score: inf
ROOT
ATOM      1  C   UNL     1      25.212  -4.029  17.130  1.00  0.00     0.000 C 
ENDROOT
BRANCH   1   2
ATOM      2  C   UNL     1      25.333  -2.677  17.860  1.00  0.00     0.000 C 
BRANCH   2   3
ATOM      3  C   UNL     1      24.001  -1.976  18.198  1.00  0.00     0.000 C 
BRANCH   3   4
ATOM      4  C   UNL     1      22.766  -2.853  17.943  1.00  0.00     0.000 C 
BRANCH   4   5
ATOM      5  C   UNL     1      22.221  -3.431  19.256  1.00  0.00     0.000 C 
BRANCH   5   6
ATOM      6  C   UNL     1      22.298  -4.966  19.260  1.00  0.00     0.000 C 
BRANCH   6   7
ATOM      7  C   UNL     1      20.929  -5.624  19.024  1.00  0.00     0.000 C 
BRANCH   7   8
ATOM      8  C   UNL     1      20.793  -6.223  17.616  1.00  0.00     0.000 C 
BRANCH   8   9
ATOM      9  C   UNL     1      20.140  -5.216  16.657  1.00  0.00     0.000 C 
BRANCH   9  10
ATOM     10  C   UNL     1      21.023  -4.884  15.441  1.00  0.00     0.000 C 
BRANCH  10  11
ATOM     11  C   UNL     1      20.458  -5.340  14.082  1.00  0.00     0.000 C 
BRANCH  11  12
ATOM     12  C   UNL     1      20.914  -6.739  13.618  1.00  0.00     0.000 C 
BRANCH  12  13
ATOM     13  C   UNL     1      19.786  -7.781  13.479  1.00  0.00     0.006 C 
BRANCH  13  14
ATOM     14  C   UNL     1      18.998  -8.038  14.772  1.00  0.00     0.053 C 
BRANCH  14  15
ATOM     15  C   UNL     1      19.279  -9.396  15.339  1.00  0.00     0.041 C 
ATOM     16  O   UNL     1      19.732  -9.514  16.508  1.00  0.00    -0.550 OA
ATOM     17  O   UNL     1      19.016 -10.534  14.585  1.00  0.00    -0.550 OA
ENDBRANCH  14  15
ENDBRANCH  13  14
ENDBRANCH  12  13
ENDBRANCH  11  12
ENDBRANCH  10  11
ENDBRANCH   9  10
ENDBRANCH   8   9
ENDBRANCH   7   8
ENDBRANCH   6   7
ENDBRANCH   5   6
ENDBRANCH   4   5
ENDBRANCH   3   4
ENDBRANCH   2   3
ENDBRANCH   1   2
BRANCH   1  18
ATOM     18  C   UNL     1      25.756  -5.218  17.940  1.00  0.00     0.000 C 
BRANCH  18  19
ATOM     19  C   UNL     1      25.189  -6.571  17.478  1.00  0.00     0.000 C 
BRANCH  19  20
ATOM     20  C   UNL     1      24.229  -6.485  16.274  1.00  0.00     0.000 C 
BRANCH  20  21
ATOM     21  C   UNL     1      24.806  -7.118  14.992  1.00  0.00     0.000 C 
BRANCH  21  22
ATOM     22  C   UNL     1      24.174  -8.488  14.662  1.00  0.00     0.000 C 
BRANCH  22  23
ATOM     23  C   UNL     1      23.022  -8.904  15.599  1.00  0.00     0.000 C 
BRANCH  23  24
ATOM     24  C   UNL     1      23.307 -10.114  16.508  1.00  0.00    -0.000 C 
BRANCH  24  25
ATOM     25  C   UNL     1      24.749 -10.205  17.044  1.00  0.00    -0.000 C 
BRANCH  25  26
ATOM     26  C   UNL     1      25.393 -11.581  16.801  1.00  0.00    -0.000 C 
BRANCH  26  27
ATOM     27  C   UNL     1      24.972 -12.205  15.459  1.00  0.00    -0.000 C 
BRANCH  27  28
ATOM     28  C   UNL     1      25.876 -11.764  14.294  1.00  0.00    -0.000 C 
BRANCH  28  29
ATOM     29  C   UNL     1      25.098 -11.596  12.978  1.00  0.00    -0.000 C 
BRANCH  29  30
ATOM     30  C   UNL     1      23.635 -12.051  13.092  1.00  0.00    -0.000 C 
BRANCH  30  31
ATOM     31  C   UNL     1      22.818 -11.568  11.888  1.00  0.00    -0.003 C 
ATOM     32  C   UNL     1      21.749 -10.565  12.310  1.00  0.00     0.004 C 
ENDBRANCH  30  31
ENDBRANCH  29  30
ENDBRANCH  28  29
ENDBRANCH  27  28
ENDBRANCH  26  27
ENDBRANCH  25  26
ENDBRANCH  24  25
ENDBRANCH  23  24
ENDBRANCH  22  23
ENDBRANCH  21  22
ENDBRANCH  20  21
ENDBRANCH  19  20
ENDBRANCH  18  19
ENDBRANCH   1  18
TORSDOF 28
ENDMDL
MODEL 7
REMARK VINA RESULT:    -3.683      2.060      5.123
REMARK INTER + INTRA:         -15.245
REMARK INTER:                  -9.839
REMARK INTRA:                  -5.406
REMARK UNBOUND:                -5.535
REMARK SMILES CCCCCCCCCCCCCCCCCCCCCCCCCCCCCC(=O)[O-]
REMARK SMILES IDX 16 1 17 2 18 3 19 4 20 5 21 6 22 7 23 8 24 9 25 10 26 11
REMARK SMILES IDX 27 12 28 13 29 14 30 15 31 16 32 17 15 18 14 19 13 20 12 21
REMARK SMILES IDX 11 22 10 23 9 24 8 25 7 26 6 27 5 28 4 29 3 30 2 31 1 32
REMARK H PARENT
REMARK Flexibility Score: inf
ROOT
ATOM      1  C   UNL     1      25.022  -2.238  18.260  1.00  0.00     0.000 C 
ENDROOT
BRANCH   1   2
ATOM      2  C   UNL     1      24.786  -3.328  17.196  1.00  0.00     0.000 C 
BRANCH   2   3
ATOM      3  C   UNL     1      25.826  -4.467  17.160  1.00  0.00     0.000 C 
BRANCH   3   4
ATOM      4  C   UNL     1      25.404  -5.707  17.964  1.00  0.00     0.000 C 
BRANCH   4   5
ATOM      5  C   UNL     1      25.120  -6.894  17.034  1.00  0.00     0.000 C 
BRANCH   5   6
ATOM      6  C   UNL     1      25.182  -6.468  15.558  1.00  0.00     0.000 C 
BRANCH   6   7
ATOM      7  C   UNL     1      24.750  -7.592  14.603  1.00  0.00     0.000 C 
BRANCH   7   8
ATOM      8  C   UNL     1      23.270  -7.496  14.203  1.00  0.00     0.000 C 
BRANCH   8   9
ATOM      9  C   UNL     1      22.624  -8.890  14.168  1.00  0.00     0.000 C 
BRANCH   9  10
ATOM     10  C   UNL     1      21.642  -9.127  15.329  1.00  0.00     0.000 C 
BRANCH  10  11
ATOM     11  C   UNL     1      22.302  -9.370  16.701  1.00  0.00     0.000 C 
BRANCH  11  12
ATOM     12  C   UNL     1      23.135 -10.663  16.808  1.00  0.00     0.000 C 
BRANCH  12  13
ATOM     13  C   UNL     1      24.662 -10.454  16.860  1.00  0.00     0.006 C 
BRANCH  13  14
ATOM     14  C   UNL     1      25.482 -11.752  16.805  1.00  0.00     0.053 C 
BRANCH  14  15
ATOM     15  C   UNL     1      26.395 -11.789  15.618  1.00  0.00     0.041 C 
ATOM     16  O   UNL     1      27.444 -12.485  15.646  1.00  0.00    -0.550 OA
ATOM     17  O   UNL     1      26.073 -11.075  14.470  1.00  0.00    -0.550 OA
ENDBRANCH  14  15
ENDBRANCH  13  14
ENDBRANCH  12  13
ENDBRANCH  11  12
ENDBRANCH  10  11
ENDBRANCH   9  10
ENDBRANCH   8   9
ENDBRANCH   7   8
ENDBRANCH   6   7
ENDBRANCH   5   6
ENDBRANCH   4   5
ENDBRANCH   3   4
ENDBRANCH   2   3
ENDBRANCH   1   2
BRANCH   1  18
ATOM     18  C   UNL     1      23.724  -1.624  18.812  1.00  0.00     0.000 C 
BRANCH  18  19
ATOM     19  C   UNL     1      22.458  -2.337  18.305  1.00  0.00     0.000 C 
BRANCH  19  20
ATOM     20  C   UNL     1      21.740  -3.194  19.366  1.00  0.00     0.000 C 
BRANCH  20  21
ATOM     21  C   UNL     1      22.294  -4.630  19.463  1.00  0.00     0.000 C 
BRANCH  21  22
ATOM     22  C   UNL     1      21.488  -5.643  18.621  1.00  0.00     0.000 C 
BRANCH  22  23
ATOM     23  C   UNL     1      21.798  -5.610  17.110  1.00  0.00     0.000 C 
BRANCH  23  24
ATOM     24  C   UNL     1      20.689  -5.029  16.214  1.00  0.00    -0.000 C 
BRANCH  24  25
ATOM     25  C   UNL     1      19.914  -6.066  15.378  1.00  0.00    -0.000 C 
BRANCH  25  26
ATOM     26  C   UNL     1      18.765  -6.728  16.158  1.00  0.00    -0.000 C 
BRANCH  26  27
ATOM     27  C   UNL     1      17.754  -5.707  16.707  1.00  0.00    -0.000 C 
BRANCH  27  28
ATOM     28  C   UNL     1      17.633  -5.763  18.240  1.00  0.00    -0.000 C 
BRANCH  28  29
ATOM     29  C   UNL     1      17.356  -4.382  18.858  1.00  0.00    -0.000 C 
BRANCH  29  30
ATOM     30  C   UNL     1      18.480  -3.372  18.581  1.00  0.00    -0.000 C 
BRANCH  30  31
ATOM     31  C   UNL     1      17.957  -2.184  17.765  1.00  0.00    -0.003 C 
ATOM     32  C   UNL     1      19.076  -1.529  16.961  1.00  0.00     0.004 C 
ENDBRANCH  30  31
ENDBRANCH  29  30
ENDBRANCH  28  29
ENDBRANCH  27  28
ENDBRANCH  26  27
ENDBRANCH  25  26
ENDBRANCH  24  25
ENDBRANCH  23  24
ENDBRANCH  22  23
ENDBRANCH  21  22
ENDBRANCH  20  21
ENDBRANCH  19  20
ENDBRANCH  18  19
ENDBRANCH   1  18
TORSDOF 28
ENDMDL
MODEL 8
REMARK VINA RESULT:    -3.671      1.535      3.585
REMARK INTER + INTRA:         -15.215
REMARK INTER:                  -9.721
REMARK INTRA:                  -5.494
REMARK UNBOUND:                -5.535
REMARK SMILES CCCCCCCCCCCCCCCCCCCCCCCCCCCCCC(=O)[O-]
REMARK SMILES IDX 16 1 17 2 18 3 19 4 20 5 21 6 22 7 23 8 24 9 25 10 26 11
REMARK SMILES IDX 27 12 28 13 29 14 30 15 31 16 32 17 15 18 14 19 13 20 12 21
REMARK SMILES IDX 11 22 10 23 9 24 8 25 7 26 6 27 5 28 4 29 3 30 2 31 1 32
REMARK H PARENT
REMARK Flexibility Score: inf
ROOT
ATOM      1  C   UNL     1      22.156  -5.631  18.551  1.00  0.00     0.000 C 
ENDROOT
BRANCH   1   2
ATOM      2  C   UNL     1      21.863  -4.447  19.494  1.00  0.00     0.000 C 
BRANCH   2   3
ATOM      3  C   UNL     1      21.745  -3.065  18.819  1.00  0.00     0.000 C 
BRANCH   3   4
ATOM      4  C   UNL     1      22.592  -2.933  17.544  1.00  0.00     0.000 C 
BRANCH   4   5
ATOM      5  C   UNL     1      23.655  -1.838  17.703  1.00  0.00     0.000 C 
BRANCH   5   6
ATOM      6  C   UNL     1      24.984  -2.425  18.205  1.00  0.00     0.000 C 
BRANCH   6   7
ATOM      7  C   UNL     1      25.392  -3.695  17.441  1.00  0.00     0.000 C 
BRANCH   7   8
ATOM      8  C   UNL     1      25.739  -4.864  18.376  1.00  0.00     0.000 C 
BRANCH   8   9
ATOM      9  C   UNL     1      25.499  -6.210  17.675  1.00  0.00     0.000 C 
BRANCH   9  10
ATOM     10  C   UNL     1      25.153  -6.057  16.183  1.00  0.00     0.000 C 
BRANCH  10  11
ATOM     11  C   UNL     1      24.653  -7.342  15.495  1.00  0.00     0.000 C 
BRANCH  11  12
ATOM     12  C   UNL     1      24.220  -8.472  16.451  1.00  0.00     0.000 C 
BRANCH  12  13
ATOM     13  C   UNL     1      23.735  -9.763  15.760  1.00  0.00     0.006 C 
BRANCH  13  14
ATOM     14  C   UNL     1      24.360 -11.052  16.315  1.00  0.00     0.053 C 
BRANCH  14  15
ATOM     15  C   UNL     1      25.668 -11.368  15.658  1.00  0.00     0.041 C 
ATOM     16  O   UNL     1      25.792 -11.268  14.408  1.00  0.00    -0.550 OA
ATOM     17  O   UNL     1      26.761 -11.747  16.429  1.00  0.00    -0.550 OA
ENDBRANCH  14  15
ENDBRANCH  13  14
ENDBRANCH  12  13
ENDBRANCH  11  12
ENDBRANCH  10  11
ENDBRANCH   9  10
ENDBRANCH   8   9
ENDBRANCH   7   8
ENDBRANCH   6   7
ENDBRANCH   5   6
ENDBRANCH   4   5
ENDBRANCH   3   4
ENDBRANCH   2   3
ENDBRANCH   1   2
BRANCH   1  18
ATOM     18  C   UNL     1      20.951  -6.562  18.339  1.00  0.00     0.000 C 
BRANCH  18  19
ATOM     19  C   UNL     1      19.812  -6.311  19.342  1.00  0.00     0.000 C 
BRANCH  19  20
ATOM     20  C   UNL     1      18.502  -5.802  18.708  1.00  0.00     0.000 C 
BRANCH  20  21
ATOM     21  C   UNL     1      18.554  -5.750  17.168  1.00  0.00     0.000 C 
BRANCH  21  22
ATOM     22  C   UNL     1      18.609  -4.308  16.617  1.00  0.00     0.000 C 
BRANCH  22  23
ATOM     23  C   UNL     1      19.320  -4.169  15.255  1.00  0.00     0.000 C 
BRANCH  23  24
ATOM     24  C   UNL     1      20.729  -4.783  15.173  1.00  0.00    -0.000 C 
BRANCH  24  25
ATOM     25  C   UNL     1      20.905  -5.880  14.106  1.00  0.00    -0.000 C 
BRANCH  25  26
ATOM     26  C   UNL     1      21.083  -7.283  14.712  1.00  0.00    -0.000 C 
BRANCH  26  27
ATOM     27  C   UNL     1      20.334  -8.370  13.921  1.00  0.00    -0.000 C 
BRANCH  27  28
ATOM     28  C   UNL     1      18.999  -8.763  14.577  1.00  0.00    -0.000 C 
BRANCH  28  29
ATOM     29  C   UNL     1      18.922 -10.264  14.900  1.00  0.00    -0.000 C 
BRANCH  29  30
ATOM     30  C   UNL     1      20.252 -10.826  15.427  1.00  0.00    -0.000 C 
BRANCH  30  31
ATOM     31  C   UNL     1      20.388 -10.584  16.935  1.00  0.00    -0.003 C 
ATOM     32  C   UNL     1      20.037 -11.837  17.731  1.00  0.00     0.004 C 
ENDBRANCH  30  31
ENDBRANCH  29  30
ENDBRANCH  28  29
ENDBRANCH  27  28
ENDBRANCH  26  27
ENDBRANCH  25  26
ENDBRANCH  24  25
ENDBRANCH  23  24
ENDBRANCH  22  23
ENDBRANCH  21  22
ENDBRANCH  20  21
ENDBRANCH  19  20
ENDBRANCH  18  19
ENDBRANCH   1  18
TORSDOF 28
ENDMDL
MODEL 9
REMARK VINA RESULT:    -3.642      9.309     12.499
REMARK INTER + INTRA:         -15.139
REMARK INTER:                  -9.181
REMARK INTRA:                  -5.958
REMARK UNBOUND:                -5.535
REMARK SMILES CCCCCCCCCCCCCCCCCCCCCCCCCCCCCC(=O)[O-]
REMARK SMILES IDX 16 1 17 2 18 3 19 4 20 5 21 6 22 7 23 8 24 9 25 10 26 11
REMARK SMILES IDX 27 12 28 13 29 14 30 15 31 16 32 17 15 18 14 19 13 20 12 21
REMARK SMILES IDX 11 22 10 23 9 24 8 25 7 26 6 27 5 28 4 29 3 30 2 31 1 32
REMARK H PARENT
REMARK Flexibility Score: inf
ROOT
ATOM      1  C   UNL     1      24.046  -2.539   6.650  1.00  0.00     0.000 C 
ENDROOT
BRANCH   1   2
ATOM      2  C   UNL     1      23.129  -1.317   6.860  1.00  0.00     0.000 C 
BRANCH   2   3
ATOM      3  C   UNL     1      21.972  -1.165   5.851  1.00  0.00     0.000 C 
BRANCH   3   4
ATOM      4  C   UNL     1      21.376   0.251   5.813  1.00  0.00     0.000 C 
BRANCH   4   5
ATOM      5  C   UNL     1      22.014   1.145   6.884  1.00  0.00     0.000 C 
BRANCH   5   6
ATOM      6  C   UNL     1      20.940   1.867   7.714  1.00  0.00     0.000 C 
BRANCH   6   7
ATOM      7  C   UNL     1      21.330   1.999   9.194  1.00  0.00     0.000 C 
BRANCH   7   8
ATOM      8  C   UNL     1      21.630   0.643   9.853  1.00  0.00     0.000 C 
BRANCH   8   9
ATOM      9  C   UNL     1      20.548   0.290  10.885  1.00  0.00     0.000 C 
BRANCH   9  10
ATOM     10  C   UNL     1      19.706  -0.932  10.478  1.00  0.00     0.000 C 
BRANCH  10  11
ATOM     11  C   UNL     1      20.051  -1.532   9.101  1.00  0.00     0.000 C 
BRANCH  11  12
ATOM     12  C   UNL     1      18.931  -1.437   8.045  1.00  0.00     0.000 C 
BRANCH  12  13
ATOM     13  C   UNL     1      18.767  -2.685   7.154  1.00  0.00     0.006 C 
BRANCH  13  14
ATOM     14  C   UNL     1      19.879  -3.733   7.320  1.00  0.00     0.053 C 
BRANCH  14  15
ATOM     15  C   UNL     1      19.692  -4.898   6.397  1.00  0.00     0.041 C 
ATOM     16  O   UNL     1      20.661  -5.657   6.130  1.00  0.00    -0.550 OA
ATOM     17  O   UNL     1      18.440  -5.164   5.855  1.00  0.00    -0.550 OA
ENDBRANCH  14  15
ENDBRANCH  13  14
ENDBRANCH  12  13
ENDBRANCH  11  12
ENDBRANCH  10  11
ENDBRANCH   9  10
ENDBRANCH   8   9
ENDBRANCH   7   8
ENDBRANCH   6   7
ENDBRANCH   5   6
ENDBRANCH   4   5
ENDBRANCH   3   4
ENDBRANCH   2   3
ENDBRANCH   1   2
BRANCH   1  18
ATOM     18  C   UNL     1      25.544  -2.208   6.746  1.00  0.00     0.000 C 
BRANCH  18  19
ATOM     19  C   UNL     1      26.371  -3.339   7.383  1.00  0.00     0.000 C 
BRANCH  19  20
ATOM     20  C   UNL     1      27.830  -2.962   7.704  1.00  0.00     0.000 C 
BRANCH  20  21
ATOM     21  C   UNL     1      28.149  -1.480   7.423  1.00  0.00     0.000 C 
BRANCH  21  22
ATOM     22  C   UNL     1      28.886  -0.792   8.594  1.00  0.00     0.000 C 
BRANCH  22  23
ATOM     23  C   UNL     1      28.637  -1.435   9.973  1.00  0.00     0.000 C 
BRANCH  23  24
ATOM     24  C   UNL     1      27.486  -0.826  10.795  1.00  0.00    -0.000 C 
BRANCH  24  25
ATOM     25  C   UNL     1      26.117  -1.506  10.608  1.00  0.00    -0.000 C 
BRANCH  25  26
ATOM     26  C   UNL     1      25.055  -0.564  10.013  1.00  0.00    -0.000 C 
BRANCH  26  27
ATOM     27  C   UNL     1      25.520   0.903   9.973  1.00  0.00    -0.000 C 
BRANCH  27  28
ATOM     28  C   UNL     1      24.978   1.659   8.747  1.00  0.00    -0.000 C 
BRANCH  28  29
ATOM     29  C   UNL     1      25.838   1.437   7.492  1.00  0.00    -0.000 C 
BRANCH  29  30
ATOM     30  C   UNL     1      26.787   2.612   7.209  1.00  0.00    -0.000 C 
BRANCH  30  31
ATOM     31  C   UNL     1      28.077   2.121   6.540  1.00  0.00    -0.003 C 
ATOM     32  C   UNL     1      27.779   1.350   5.259  1.00  0.00     0.004 C 
ENDBRANCH  30  31
ENDBRANCH  29  30
ENDBRANCH  28  29
ENDBRANCH  27  28
ENDBRANCH  26  27
ENDBRANCH  25  26
ENDBRANCH  24  25
ENDBRANCH  23  24
ENDBRANCH  22  23
ENDBRANCH  21  22
ENDBRANCH  20  21
ENDBRANCH  19  20
ENDBRANCH  18  19
ENDBRANCH   1  18
TORSDOF 28
ENDMDL
