MODEL 1
REMARK VINA RESULT:     0.826      0.000      0.000
REMARK INTER + INTRA:           0.247
REMARK INTER:                   2.178
REMARK INTRA:                  -1.931
REMARK UNBOUND:                -1.931
REMARK SMILES CCCCCCCCCCCCCCCCCCCCCCCCCCCCCC(=O)[O-]
REMARK SMILES IDX 16 1 17 2 18 3 19 4 20 5 21 6 22 7 23 8 24 9 25 10 26 11
REMARK SMILES IDX 27 12 28 13 29 14 30 15 31 16 32 17 15 18 14 19 13 20 12 21
REMARK SMILES IDX 11 22 10 23 9 24 8 25 7 26 6 27 5 28 4 29 3 30 2 31 1 32
REMARK H PARENT
REMARK Flexibility Score: inf
ROOT
ATOM      1  C   UNL     1      15.104  13.345   6.878  1.00  0.00     0.000 C 
ENDROOT
BRANCH   1   2
ATOM      2  C   UNL     1      16.050  13.774   8.011  1.00  0.00     0.000 C 
BRANCH   2   3
ATOM      3  C   UNL     1      17.013  14.906   7.594  1.00  0.00     0.000 C 
BRANCH   3   4
ATOM      4  C   UNL     1      16.325  16.109   6.920  1.00  0.00     0.000 C 
BRANCH   4   5
ATOM      5  C   UNL     1      15.764  17.176   7.878  1.00  0.00     0.000 C 
BRANCH   5   6
ATOM      6  C   UNL     1      16.813  17.889   8.759  1.00  0.00     0.000 C 
BRANCH   6   7
ATOM      7  C   UNL     1      16.252  18.995   9.670  1.00  0.00     0.000 C 
BRANCH   7   8
ATOM      8  C   UNL     1      15.847  18.480  11.064  1.00  0.00     0.000 C 
BRANCH   8   9
ATOM      9  C   UNL     1      17.066  18.308  11.985  1.00  0.00     0.000 C 
BRANCH   9  10
ATOM     10  C   UNL     1      16.794  17.306  13.125  1.00  0.00     0.000 C 
BRANCH  10  11
ATOM     11  C   UNL     1      16.924  15.838  12.661  1.00  0.00     0.000 C 
BRANCH  11  12
ATOM     12  C   UNL     1      15.638  15.010  12.851  1.00  0.00     0.000 C 
BRANCH  12  13
ATOM     13  C   UNL     1      15.676  13.597  12.246  1.00  0.00     0.006 C 
BRANCH  13  14
ATOM     14  C   UNL     1      14.347  13.190  11.597  1.00  0.00     0.053 C 
BRANCH  14  15
ATOM     15  C   UNL     1      14.512  11.928  10.812  1.00  0.00     0.041 C 
ATOM     16  O   UNL     1      13.722  11.664   9.866  1.00  0.00    -0.550 OA
ATOM     17  O   UNL     1      15.556  11.056  11.104  1.00  0.00    -0.550 OA
ENDBRANCH  14  15
ENDBRANCH  13  14
ENDBRANCH  12  13
ENDBRANCH  11  12
ENDBRANCH  10  11
ENDBRANCH   9  10
ENDBRANCH   8   9
ENDBRANCH   7   8
ENDBRANCH   6   7
ENDBRANCH   5   6
ENDBRANCH   4   5
ENDBRANCH   3   4
ENDBRANCH   2   3
ENDBRANCH   1   2
BRANCH   1  18
ATOM     18  C   UNL     1      13.838  14.213   6.852  1.00  0.00     0.000 C 
BRANCH  18  19
ATOM     19  C   UNL     1      13.252  14.367   5.435  1.00  0.00     0.000 C 
BRANCH  19  20
ATOM     20  C   UNL     1      13.527  15.727   4.761  1.00  0.00     0.000 C 
BRANCH  20  21
ATOM     21  C   UNL     1      12.478  16.163   3.722  1.00  0.00     0.000 C 
BRANCH  21  22
ATOM     22  C   UNL     1      13.071  17.036   2.607  1.00  0.00     0.000 C 
BRANCH  22  23
ATOM     23  C   UNL     1      12.643  16.534   1.219  1.00  0.00     0.000 C 
BRANCH  23  24
ATOM     24  C   UNL     1      12.198  17.673   0.286  1.00  0.00    -0.000 C 
BRANCH  24  25
ATOM     25  C   UNL     1      13.317  18.693   0.020  1.00  0.00    -0.000 C 
BRANCH  25  26
ATOM     26  C   UNL     1      12.895  19.801  -0.963  1.00  0.00    -0.000 C 
BRANCH  26  27
ATOM     27  C   UNL     1      13.640  21.137  -0.753  1.00  0.00    -0.000 C 
BRANCH  27  28
ATOM     28  C   UNL     1      14.677  21.404  -1.863  1.00  0.00    -0.000 C 
BRANCH  28  29
ATOM     29  C   UNL     1      16.012  21.931  -1.312  1.00  0.00    -0.000 C 
BRANCH  29  30
ATOM     30  C   UNL     1      16.216  21.588   0.173  1.00  0.00    -0.000 C 
BRANCH  30  31
ATOM     31  C   UNL     1      17.125  20.366   0.374  1.00  0.00    -0.003 C 
ATOM     32  C   UNL     1      16.352  19.117   0.804  1.00  0.00     0.004 C 
ENDBRANCH  30  31
ENDBRANCH  29  30
ENDBRANCH  28  29
ENDBRANCH  27  28
ENDBRANCH  26  27
ENDBRANCH  25  26
ENDBRANCH  24  25
ENDBRANCH  23  24
ENDBRANCH  22  23
ENDBRANCH  21  22
ENDBRANCH  20  21
ENDBRANCH  19  20
ENDBRANCH  18  19
ENDBRANCH   1  18
TORSDOF 28
ENDMDL
MODEL 2
REMARK VINA RESULT:     0.918      3.194      5.732
REMARK INTER + INTRA:           0.491
REMARK INTER:                   1.304
REMARK INTRA:                  -0.813
REMARK UNBOUND:                -1.931
REMARK SMILES CCCCCCCCCCCCCCCCCCCCCCCCCCCCCC(=O)[O-]
REMARK SMILES IDX 16 1 17 2 18 3 19 4 20 5 21 6 22 7 23 8 24 9 25 10 26 11
REMARK SMILES IDX 27 12 28 13 29 14 30 15 31 16 32 17 15 18 14 19 13 20 12 21
REMARK SMILES IDX 11 22 10 23 9 24 8 25 7 26 6 27 5 28 4 29 3 30 2 31 1 32
REMARK H PARENT
REMARK Flexibility Score: inf
ROOT
ATOM      1  C   UNL     1      15.188  12.108  10.631  1.00  0.00     0.000 C 
ENDROOT
BRANCH   1   2
ATOM      2  C   UNL     1      14.022  12.373  11.596  1.00  0.00     0.000 C 
BRANCH   2   3
ATOM      3  C   UNL     1      14.417  13.277  12.783  1.00  0.00     0.000 C 
BRANCH   3   4
ATOM      4  C   UNL     1      15.864  13.802  12.727  1.00  0.00     0.000 C 
BRANCH   4   5
ATOM      5  C   UNL     1      16.017  15.334  12.775  1.00  0.00     0.000 C 
BRANCH   5   6
ATOM      6  C   UNL     1      16.905  15.945  11.670  1.00  0.00     0.000 C 
BRANCH   6   7
ATOM      7  C   UNL     1      17.063  17.474  11.735  1.00  0.00     0.000 C 
BRANCH   7   8
ATOM      8  C   UNL     1      16.744  18.055  13.125  1.00  0.00     0.000 C 
BRANCH   8   9
ATOM      9  C   UNL     1      15.516  18.980  13.088  1.00  0.00     0.000 C 
BRANCH   9  10
ATOM     10  C   UNL     1      14.541  18.605  11.955  1.00  0.00     0.000 C 
BRANCH  10  11
ATOM     11  C   UNL     1      13.349  19.583  11.857  1.00  0.00     0.000 C 
BRANCH  11  12
ATOM     12  C   UNL     1      13.292  20.610  13.005  1.00  0.00     0.000 C 
BRANCH  12  13
ATOM     13  C   UNL     1      14.124  21.882  12.783  1.00  0.00     0.006 C 
BRANCH  13  14
ATOM     14  C   UNL     1      14.843  21.897  11.427  1.00  0.00     0.053 C 
BRANCH  14  15
ATOM     15  C   UNL     1      16.317  21.737  11.613  1.00  0.00     0.041 C 
ATOM     16  O   UNL     1      16.837  21.930  12.744  1.00  0.00    -0.550 OA
ATOM     17  O   UNL     1      17.116  21.343  10.543  1.00  0.00    -0.550 OA
ENDBRANCH  14  15
ENDBRANCH  13  14
ENDBRANCH  12  13
ENDBRANCH  11  12
ENDBRANCH  10  11
ENDBRANCH   9  10
ENDBRANCH   8   9
ENDBRANCH   7   8
ENDBRANCH   6   7
ENDBRANCH   5   6
ENDBRANCH   4   5
ENDBRANCH   3   4
ENDBRANCH   2   3
ENDBRANCH   1   2
BRANCH   1  18
ATOM     18  C   UNL     1      15.299  13.215   9.573  1.00  0.00     0.000 C 
BRANCH  18  19
ATOM     19  C   UNL     1      14.365  12.982   8.370  1.00  0.00     0.000 C 
BRANCH  19  20
ATOM     20  C   UNL     1      14.810  13.663   7.059  1.00  0.00     0.000 C 
BRANCH  20  21
ATOM     21  C   UNL     1      16.170  14.383   7.128  1.00  0.00     0.000 C 
BRANCH  21  22
ATOM     22  C   UNL     1      16.047  15.843   7.590  1.00  0.00     0.000 C 
BRANCH  22  23
ATOM     23  C   UNL     1      15.677  16.767   6.420  1.00  0.00     0.000 C 
BRANCH  23  24
ATOM     24  C   UNL     1      14.234  16.556   5.930  1.00  0.00    -0.000 C 
BRANCH  24  25
ATOM     25  C   UNL     1      14.149  16.341   4.409  1.00  0.00    -0.000 C 
BRANCH  25  26
ATOM     26  C   UNL     1      12.789  16.762   3.821  1.00  0.00    -0.000 C 
BRANCH  26  27
ATOM     27  C   UNL     1      12.545  16.246   2.387  1.00  0.00    -0.000 C 
BRANCH  27  28
ATOM     28  C   UNL     1      12.862  17.316   1.323  1.00  0.00    -0.000 C 
BRANCH  28  29
ATOM     29  C   UNL     1      14.334  17.759   1.348  1.00  0.00    -0.000 C 
BRANCH  29  30
ATOM     30  C   UNL     1      14.580  19.040   0.533  1.00  0.00    -0.000 C 
BRANCH  30  31
ATOM     31  C   UNL     1      16.066  19.259   0.215  1.00  0.00    -0.003 C 
ATOM     32  C   UNL     1      16.982  18.904   1.388  1.00  0.00     0.004 C 
ENDBRANCH  30  31
ENDBRANCH  29  30
ENDBRANCH  28  29
ENDBRANCH  27  28
ENDBRANCH  26  27
ENDBRANCH  25  26
ENDBRANCH  24  25
ENDBRANCH  23  24
ENDBRANCH  22  23
ENDBRANCH  21  22
ENDBRANCH  20  21
ENDBRANCH  19  20
ENDBRANCH  18  19
ENDBRANCH   1  18
TORSDOF 28
ENDMDL
MODEL 3
REMARK VINA RESULT:     1.335      3.527     11.180
REMARK INTER + INTRA:           1.590
REMARK INTER:                   3.398
REMARK INTRA:                  -1.808
REMARK UNBOUND:                -1.931
REMARK SMILES CCCCCCCCCCCCCCCCCCCCCCCCCCCCCC(=O)[O-]
REMARK SMILES IDX 16 1 17 2 18 3 19 4 20 5 21 6 22 7 23 8 24 9 25 10 26 11
REMARK SMILES IDX 27 12 28 13 29 14 30 15 31 16 32 17 15 18 14 19 13 20 12 21
REMARK SMILES IDX 11 22 10 23 9 24 8 25 7 26 6 27 5 28 4 29 3 30 2 31 1 32
REMARK H PARENT
REMARK Flexibility Score: inf
ROOT
ATOM      1  C   UNL     1      14.502  14.498   6.826  1.00  0.00     0.000 C 
ENDROOT
BRANCH   1   2
ATOM      2  C   UNL     1      14.847  15.803   6.092  1.00  0.00     0.000 C 
BRANCH   2   3
ATOM      3  C   UNL     1      13.856  16.134   4.955  1.00  0.00     0.000 C 
BRANCH   3   4
ATOM      4  C   UNL     1      14.274  17.329   4.077  1.00  0.00     0.000 C 
BRANCH   4   5
ATOM      5  C   UNL     1      13.806  17.271   2.611  1.00  0.00     0.000 C 
BRANCH   5   6
ATOM      6  C   UNL     1      14.704  18.017   1.600  1.00  0.00     0.000 C 
BRANCH   6   7
ATOM      7  C   UNL     1      16.083  18.432   2.140  1.00  0.00     0.000 C 
BRANCH   7   8
ATOM      8  C   UNL     1      17.123  18.661   1.027  1.00  0.00     0.000 C 
BRANCH   8   9
ATOM      9  C   UNL     1      16.551  19.508  -0.123  1.00  0.00     0.000 C 
BRANCH   9  10
ATOM     10  C   UNL     1      16.649  21.019   0.166  1.00  0.00     0.000 C 
BRANCH  10  11
ATOM     11  C   UNL     1      15.841  21.864  -0.843  1.00  0.00     0.000 C 
BRANCH  11  12
ATOM     12  C   UNL     1      14.616  21.134  -1.425  1.00  0.00     0.000 C 
BRANCH  12  13
ATOM     13  C   UNL     1      13.628  20.585  -0.384  1.00  0.00     0.006 C 
BRANCH  13  14
ATOM     14  C   UNL     1      12.200  20.447  -0.929  1.00  0.00     0.053 C 
BRANCH  14  15
ATOM     15  C   UNL     1      11.882  19.015  -1.213  1.00  0.00     0.041 C 
ATOM     16  O   UNL     1      11.547  18.659  -2.374  1.00  0.00    -0.550 OA
ATOM     17  O   UNL     1      11.985  18.064  -0.202  1.00  0.00    -0.550 OA
ENDBRANCH  14  15
ENDBRANCH  13  14
ENDBRANCH  12  13
ENDBRANCH  11  12
ENDBRANCH  10  11
ENDBRANCH   9  10
ENDBRANCH   8   9
ENDBRANCH   7   8
ENDBRANCH   6   7
ENDBRANCH   5   6
ENDBRANCH   4   5
ENDBRANCH   3   4
ENDBRANCH   2   3
ENDBRANCH   1   2
BRANCH   1  18
ATOM     18  C   UNL     1      15.770  13.763   7.282  1.00  0.00     0.000 C 
BRANCH  18  19
ATOM     19  C   UNL     1      15.673  13.253   8.732  1.00  0.00     0.000 C 
BRANCH  19  20
ATOM     20  C   UNL     1      14.266  12.797   9.170  1.00  0.00     0.000 C 
BRANCH  20  21
ATOM     21  C   UNL     1      14.110  12.518  10.676  1.00  0.00     0.000 C 
BRANCH  21  22
ATOM     22  C   UNL     1      15.002  11.366  11.162  1.00  0.00     0.000 C 
BRANCH  22  23
ATOM     23  C   UNL     1      15.578  11.659  12.556  1.00  0.00     0.000 C 
BRANCH  23  24
ATOM     24  C   UNL     1      15.662  13.165  12.859  1.00  0.00    -0.000 C 
BRANCH  24  25
ATOM     25  C   UNL     1      17.024  13.772  12.481  1.00  0.00    -0.000 C 
BRANCH  25  26
ATOM     26  C   UNL     1      16.968  15.300  12.299  1.00  0.00    -0.000 C 
BRANCH  26  27
ATOM     27  C   UNL     1      16.483  15.743  10.902  1.00  0.00    -0.000 C 
BRANCH  27  28
ATOM     28  C   UNL     1      15.987  17.203  10.896  1.00  0.00    -0.000 C 
BRANCH  28  29
ATOM     29  C   UNL     1      16.877  18.135  11.735  1.00  0.00    -0.000 C 
BRANCH  29  30
ATOM     30  C   UNL     1      16.701  19.616  11.359  1.00  0.00    -0.000 C 
BRANCH  30  31
ATOM     31  C   UNL     1      15.277  19.936  10.881  1.00  0.00    -0.003 C 
ATOM     32  C   UNL     1      14.260  19.959  12.024  1.00  0.00     0.004 C 
ENDBRANCH  30  31
ENDBRANCH  29  30
ENDBRANCH  28  29
ENDBRANCH  27  28
ENDBRANCH  26  27
ENDBRANCH  25  26
ENDBRANCH  24  25
ENDBRANCH  23  24
ENDBRANCH  22  23
ENDBRANCH  21  22
ENDBRANCH  20  21
ENDBRANCH  19  20
ENDBRANCH  18  19
ENDBRANCH   1  18
TORSDOF 28
ENDMDL
MODEL 4
REMARK VINA RESULT:     1.414      3.706     11.495
REMARK INTER + INTRA:           1.797
REMARK INTER:                   3.786
REMARK INTRA:                  -1.989
REMARK UNBOUND:                -1.931
REMARK SMILES CCCCCCCCCCCCCCCCCCCCCCCCCCCCCC(=O)[O-]
REMARK SMILES IDX 16 1 17 2 18 3 19 4 20 5 21 6 22 7 23 8 24 9 25 10 26 11
REMARK SMILES IDX 27 12 28 13 29 14 30 15 31 16 32 17 15 18 14 19 13 20 12 21
REMARK SMILES IDX 11 22 10 23 9 24 8 25 7 26 6 27 5 28 4 29 3 30 2 31 1 32
REMARK H PARENT
REMARK Flexibility Score: inf
ROOT
ATOM      1  C   UNL     1      14.889  16.603   5.646  1.00  0.00     0.000 C 
ENDROOT
BRANCH   1   2
ATOM      2  C   UNL     1      13.644  15.908   5.074  1.00  0.00     0.000 C 
BRANCH   2   3
ATOM      3  C   UNL     1      12.911  16.761   4.017  1.00  0.00     0.000 C 
BRANCH   3   4
ATOM      4  C   UNL     1      13.121  16.290   2.565  1.00  0.00     0.000 C 
BRANCH   4   5
ATOM      5  C   UNL     1      13.084  17.398   1.495  1.00  0.00     0.000 C 
BRANCH   5   6
ATOM      6  C   UNL     1      14.442  18.064   1.185  1.00  0.00     0.000 C 
BRANCH   6   7
ATOM      7  C   UNL     1      15.465  18.018   2.333  1.00  0.00     0.000 C 
BRANCH   7   8
ATOM      8  C   UNL     1      16.880  18.443   1.899  1.00  0.00     0.000 C 
BRANCH   8   9
ATOM      9  C   UNL     1      16.921  18.861   0.419  1.00  0.00     0.000 C 
BRANCH   9  10
ATOM     10  C   UNL     1      17.020  20.390   0.252  1.00  0.00     0.000 C 
BRANCH  10  11
ATOM     11  C   UNL     1      17.123  20.814  -1.231  1.00  0.00     0.000 C 
BRANCH  11  12
ATOM     12  C   UNL     1      16.380  22.125  -1.555  1.00  0.00     0.000 C 
BRANCH  12  13
ATOM     13  C   UNL     1      14.867  21.978  -1.780  1.00  0.00     0.006 C 
BRANCH  13  14
ATOM     14  C   UNL     1      14.398  20.517  -1.750  1.00  0.00     0.053 C 
BRANCH  14  15
ATOM     15  C   UNL     1      13.241  20.358  -0.816  1.00  0.00     0.041 C 
ATOM     16  O   UNL     1      13.229  20.967   0.287  1.00  0.00    -0.550 OA
ATOM     17  O   UNL     1      12.159  19.560  -1.176  1.00  0.00    -0.550 OA
ENDBRANCH  14  15
ENDBRANCH  13  14
ENDBRANCH  12  13
ENDBRANCH  11  12
ENDBRANCH  10  11
ENDBRANCH   9  10
ENDBRANCH   8   9
ENDBRANCH   7   8
ENDBRANCH   6   7
ENDBRANCH   5   6
ENDBRANCH   4   5
ENDBRANCH   3   4
ENDBRANCH   2   3
ENDBRANCH   1   2
BRANCH   1  18
ATOM     18  C   UNL     1      15.518  15.776   6.777  1.00  0.00     0.000 C 
BRANCH  18  19
ATOM     19  C   UNL     1      15.121  14.289   6.717  1.00  0.00     0.000 C 
BRANCH  19  20
ATOM     20  C   UNL     1      16.004  13.345   7.560  1.00  0.00     0.000 C 
BRANCH  20  21
ATOM     21  C   UNL     1      15.668  13.308   9.062  1.00  0.00     0.000 C 
BRANCH  21  22
ATOM     22  C   UNL     1      14.172  13.084   9.332  1.00  0.00     0.000 C 
BRANCH  22  23
ATOM     23  C   UNL     1      13.956  12.189  10.562  1.00  0.00     0.000 C 
BRANCH  23  24
ATOM     24  C   UNL     1      15.229  11.430  10.974  1.00  0.00    -0.000 C 
BRANCH  24  25
ATOM     25  C   UNL     1      15.368  11.288  12.499  1.00  0.00    -0.000 C 
BRANCH  25  26
ATOM     26  C   UNL     1      16.567  12.070  13.066  1.00  0.00    -0.000 C 
BRANCH  26  27
ATOM     27  C   UNL     1      17.014  13.252  12.178  1.00  0.00    -0.000 C 
BRANCH  27  28
ATOM     28  C   UNL     1      16.287  14.561  12.546  1.00  0.00    -0.000 C 
BRANCH  28  29
ATOM     29  C   UNL     1      17.056  15.814  12.093  1.00  0.00    -0.000 C 
BRANCH  29  30
ATOM     30  C   UNL     1      16.149  17.049  11.964  1.00  0.00    -0.000 C 
BRANCH  30  31
ATOM     31  C   UNL     1      16.288  17.740  10.599  1.00  0.00    -0.003 C 
ATOM     32  C   UNL     1      15.492  19.043  10.510  1.00  0.00     0.004 C 
ENDBRANCH  30  31
ENDBRANCH  29  30
ENDBRANCH  28  29
ENDBRANCH  27  28
ENDBRANCH  26  27
ENDBRANCH  25  26
ENDBRANCH  24  25
ENDBRANCH  23  24
ENDBRANCH  22  23
ENDBRANCH  21  22
ENDBRANCH  20  21
ENDBRANCH  19  20
ENDBRANCH  18  19
ENDBRANCH   1  18
TORSDOF 28
ENDMDL
MODEL 5
REMARK VINA RESULT:     1.502      2.551     11.204
REMARK INTER + INTRA:           2.028
REMARK INTER:                   3.602
REMARK INTRA:                  -1.574
REMARK UNBOUND:                -1.931
REMARK SMILES CCCCCCCCCCCCCCCCCCCCCCCCCCCCCC(=O)[O-]
REMARK SMILES IDX 16 1 17 2 18 3 19 4 20 5 21 6 22 7 23 8 24 9 25 10 26 11
REMARK SMILES IDX 27 12 28 13 29 14 30 15 31 16 32 17 15 18 14 19 13 20 12 21
REMARK SMILES IDX 11 22 10 23 9 24 8 25 7 26 6 27 5 28 4 29 3 30 2 31 1 32
REMARK H PARENT
REMARK Flexibility Score: inf
ROOT
ATOM      1  C   UNL     1      17.077  17.203   4.072  1.00  0.00     0.000 C 
ENDROOT
BRANCH   1   2
ATOM      2  C   UNL     1      17.125  18.497   3.245  1.00  0.00     0.000 C 
BRANCH   2   3
ATOM      3  C   UNL     1      16.362  18.385   1.908  1.00  0.00     0.000 C 
BRANCH   3   4
ATOM      4  C   UNL     1      17.124  18.951   0.693  1.00  0.00     0.000 C 
BRANCH   4   5
ATOM      5  C   UNL     1      17.108  20.485   0.557  1.00  0.00     0.000 C 
BRANCH   5   6
ATOM      6  C   UNL     1      17.114  21.020  -0.892  1.00  0.00     0.000 C 
BRANCH   6   7
ATOM      7  C   UNL     1      16.080  22.122  -1.181  1.00  0.00     0.000 C 
BRANCH   7   8
ATOM      8  C   UNL     1      14.722  21.568  -1.650  1.00  0.00     0.000 C 
BRANCH   8   9
ATOM      9  C   UNL     1      14.234  20.419  -0.753  1.00  0.00     0.000 C 
BRANCH   9  10
ATOM     10  C   UNL     1      12.701  20.420  -0.592  1.00  0.00     0.000 C 
BRANCH  10  11
ATOM     11  C   UNL     1      12.015  19.364  -1.488  1.00  0.00     0.000 C 
BRANCH  11  12
ATOM     12  C   UNL     1      11.713  18.037  -0.765  1.00  0.00     0.000 C 
BRANCH  12  13
ATOM     13  C   UNL     1      12.446  17.841   0.571  1.00  0.00     0.006 C 
BRANCH  13  14
ATOM     14  C   UNL     1      12.377  16.396   1.084  1.00  0.00     0.053 C 
BRANCH  14  15
ATOM     15  C   UNL     1      12.646  16.347   2.554  1.00  0.00     0.041 C 
ATOM     16  O   UNL     1      13.041  17.380   3.159  1.00  0.00    -0.550 OA
ATOM     17  O   UNL     1      12.430  15.170   3.263  1.00  0.00    -0.550 OA
ENDBRANCH  14  15
ENDBRANCH  13  14
ENDBRANCH  12  13
ENDBRANCH  11  12
ENDBRANCH  10  11
ENDBRANCH   9  10
ENDBRANCH   8   9
ENDBRANCH   7   8
ENDBRANCH   6   7
ENDBRANCH   5   6
ENDBRANCH   4   5
ENDBRANCH   3   4
ENDBRANCH   2   3
ENDBRANCH   1   2
BRANCH   1  18
ATOM     18  C   UNL     1      16.595  17.474   5.504  1.00  0.00     0.000 C 
BRANCH  18  19
ATOM     19  C   UNL     1      16.087  16.203   6.211  1.00  0.00     0.000 C 
BRANCH  19  20
ATOM     20  C   UNL     1      17.034  15.636   7.290  1.00  0.00     0.000 C 
BRANCH  20  21
ATOM     21  C   UNL     1      16.852  16.236   8.696  1.00  0.00     0.000 C 
BRANCH  21  22
ATOM     22  C   UNL     1      17.007  17.764   8.716  1.00  0.00     0.000 C 
BRANCH  22  23
ATOM     23  C   UNL     1      17.032  18.301  10.155  1.00  0.00     0.000 C 
BRANCH  23  24
ATOM     24  C   UNL     1      15.650  18.255  10.831  1.00  0.00    -0.000 C 
BRANCH  24  25
ATOM     25  C   UNL     1      15.637  17.379  12.095  1.00  0.00    -0.000 C 
BRANCH  25  26
ATOM     26  C   UNL     1      17.036  16.864  12.480  1.00  0.00    -0.000 C 
BRANCH  26  27
ATOM     27  C   UNL     1      17.095  15.339  12.715  1.00  0.00    -0.000 C 
BRANCH  27  28
ATOM     28  C   UNL     1      15.794  14.634  12.281  1.00  0.00    -0.000 C 
BRANCH  28  29
ATOM     29  C   UNL     1      15.972  13.793  11.006  1.00  0.00    -0.000 C 
BRANCH  29  30
ATOM     30  C   UNL     1      16.448  12.361  11.305  1.00  0.00    -0.000 C 
BRANCH  30  31
ATOM     31  C   UNL     1      15.319  11.328  11.179  1.00  0.00    -0.003 C 
ATOM     32  C   UNL     1      13.931  11.969  11.131  1.00  0.00     0.004 C 
ENDBRANCH  30  31
ENDBRANCH  29  30
ENDBRANCH  28  29
ENDBRANCH  27  28
ENDBRANCH  26  27
ENDBRANCH  25  26
ENDBRANCH  24  25
ENDBRANCH  23  24
ENDBRANCH  22  23
ENDBRANCH  21  22
ENDBRANCH  20  21
ENDBRANCH  19  20
ENDBRANCH  18  19
ENDBRANCH   1  18
TORSDOF 28
ENDMDL
MODEL 6
REMARK VINA RESULT:     1.505      1.395      2.543
REMARK INTER + INTRA:           2.039
REMARK INTER:                   3.491
REMARK INTRA:                  -1.453
REMARK UNBOUND:                -1.931
REMARK SMILES CCCCCCCCCCCCCCCCCCCCCCCCCCCCCC(=O)[O-]
REMARK SMILES IDX 16 1 17 2 18 3 19 4 20 5 21 6 22 7 23 8 24 9 25 10 26 11
REMARK SMILES IDX 27 12 28 13 29 14 30 15 31 16 32 17 15 18 14 19 13 20 12 21
REMARK SMILES IDX 11 22 10 23 9 24 8 25 7 26 6 27 5 28 4 29 3 30 2 31 1 32
REMARK H PARENT
REMARK Flexibility Score: inf
ROOT
ATOM      1  C   UNL     1      14.921  16.208   6.028  1.00  0.00     0.000 C 
ENDROOT
BRANCH   1   2
ATOM      2  C   UNL     1      15.939  16.149   7.177  1.00  0.00     0.000 C 
BRANCH   2   3
ATOM      3  C   UNL     1      15.626  17.148   8.311  1.00  0.00     0.000 C 
BRANCH   3   4
ATOM      4  C   UNL     1      16.781  18.111   8.645  1.00  0.00     0.000 C 
BRANCH   4   5
ATOM      5  C   UNL     1      17.125  18.241  10.141  1.00  0.00     0.000 C 
BRANCH   5   6
ATOM      6  C   UNL     1      17.015  16.938  10.961  1.00  0.00     0.000 C 
BRANCH   6   7
ATOM      7  C   UNL     1      15.816  16.875  11.923  1.00  0.00     0.000 C 
BRANCH   7   8
ATOM      8  C   UNL     1      16.055  15.942  13.125  1.00  0.00     0.000 C 
BRANCH   8   9
ATOM      9  C   UNL     1      15.616  14.499  12.824  1.00  0.00     0.000 C 
BRANCH   9  10
ATOM     10  C   UNL     1      16.758  13.488  13.046  1.00  0.00     0.000 C 
BRANCH  10  11
ATOM     11  C   UNL     1      16.264  12.025  13.009  1.00  0.00     0.000 C 
BRANCH  11  12
ATOM     12  C   UNL     1      14.855  11.860  12.406  1.00  0.00     0.000 C 
BRANCH  12  13
ATOM     13  C   UNL     1      14.793  11.905  10.871  1.00  0.00     0.006 C 
BRANCH  13  14
ATOM     14  C   UNL     1      16.155  12.201  10.227  1.00  0.00     0.053 C 
BRANCH  14  15
ATOM     15  C   UNL     1      15.975  12.917   8.927  1.00  0.00     0.041 C 
ATOM     16  O   UNL     1      14.870  13.454   8.648  1.00  0.00    -0.550 OA
ATOM     17  O   UNL     1      17.039  13.020   8.035  1.00  0.00    -0.550 OA
ENDBRANCH  14  15
ENDBRANCH  13  14
ENDBRANCH  12  13
ENDBRANCH  11  12
ENDBRANCH  10  11
ENDBRANCH   9  10
ENDBRANCH   8   9
ENDBRANCH   7   8
ENDBRANCH   6   7
ENDBRANCH   5   6
ENDBRANCH   4   5
ENDBRANCH   3   4
ENDBRANCH   2   3
ENDBRANCH   1   2
BRANCH   1  18
ATOM     18  C   UNL     1      15.322  17.258   4.982  1.00  0.00     0.000 C 
BRANCH  18  19
ATOM     19  C   UNL     1      14.415  17.234   3.737  1.00  0.00     0.000 C 
BRANCH  19  20
ATOM     20  C   UNL     1      13.264  16.208   3.790  1.00  0.00     0.000 C 
BRANCH  20  21
ATOM     21  C   UNL     1      12.268  16.286   2.619  1.00  0.00     0.000 C 
BRANCH  21  22
ATOM     22  C   UNL     1      12.928  16.732   1.305  1.00  0.00     0.000 C 
BRANCH  22  23
ATOM     23  C   UNL     1      12.060  17.763   0.569  1.00  0.00     0.000 C 
BRANCH  23  24
ATOM     24  C   UNL     1      12.828  18.502  -0.541  1.00  0.00    -0.000 C 
BRANCH  24  25
ATOM     25  C   UNL     1      13.817  19.542   0.013  1.00  0.00    -0.000 C 
BRANCH  25  26
ATOM     26  C   UNL     1      13.567  20.958  -0.539  1.00  0.00    -0.000 C 
BRANCH  26  27
ATOM     27  C   UNL     1      14.310  21.251  -1.861  1.00  0.00    -0.000 C 
BRANCH  27  28
ATOM     28  C   UNL     1      15.811  21.517  -1.635  1.00  0.00    -0.000 C 
BRANCH  28  29
ATOM     29  C   UNL     1      16.114  22.047  -0.224  1.00  0.00    -0.000 C 
BRANCH  29  30
ATOM     30  C   UNL     1      17.125  21.169   0.533  1.00  0.00    -0.000 C 
BRANCH  30  31
ATOM     31  C   UNL     1      17.121  19.713   0.044  1.00  0.00    -0.003 C 
ATOM     32  C   UNL     1      16.779  18.716   1.153  1.00  0.00     0.004 C 
ENDBRANCH  30  31
ENDBRANCH  29  30
ENDBRANCH  28  29
ENDBRANCH  27  28
ENDBRANCH  26  27
ENDBRANCH  25  26
ENDBRANCH  24  25
ENDBRANCH  23  24
ENDBRANCH  22  23
ENDBRANCH  21  22
ENDBRANCH  20  21
ENDBRANCH  19  20
ENDBRANCH  18  19
ENDBRANCH   1  18
TORSDOF 28
ENDMDL
MODEL 7
REMARK VINA RESULT:     1.748      1.434      3.250
REMARK INTER + INTRA:           2.679
REMARK INTER:                   4.048
REMARK INTRA:                  -1.368
REMARK UNBOUND:                -1.931
REMARK SMILES CCCCCCCCCCCCCCCCCCCCCCCCCCCCCC(=O)[O-]
REMARK SMILES IDX 16 1 17 2 18 3 19 4 20 5 21 6 22 7 23 8 24 9 25 10 26 11
REMARK SMILES IDX 27 12 28 13 29 14 30 15 31 16 32 17 15 18 14 19 13 20 12 21
REMARK SMILES IDX 11 22 10 23 9 24 8 25 7 26 6 27 5 28 4 29 3 30 2 31 1 32
REMARK H PARENT
REMARK Flexibility Score: inf
ROOT
ATOM      1  C   UNL     1      16.627  15.209   6.093  1.00  0.00     0.000 C 
ENDROOT
BRANCH   1   2
ATOM      2  C   UNL     1      16.811  15.607   7.566  1.00  0.00     0.000 C 
BRANCH   2   3
ATOM      3  C   UNL     1      15.613  16.400   8.130  1.00  0.00     0.000 C 
BRANCH   3   4
ATOM      4  C   UNL     1      15.970  17.806   8.648  1.00  0.00     0.000 C 
BRANCH   4   5
ATOM      5  C   UNL     1      15.856  18.001  10.172  1.00  0.00     0.000 C 
BRANCH   5   6
ATOM      6  C   UNL     1      15.447  19.419  10.628  1.00  0.00     0.000 C 
BRANCH   6   7
ATOM      7  C   UNL     1      14.574  19.467  11.893  1.00  0.00     0.000 C 
BRANCH   7   8
ATOM      8  C   UNL     1      14.985  18.425  12.950  1.00  0.00     0.000 C 
BRANCH   8   9
ATOM      9  C   UNL     1      16.511  18.360  13.124  1.00  0.00     0.000 C 
BRANCH   9  10
ATOM     10  C   UNL     1      17.067  16.952  12.834  1.00  0.00     0.000 C 
BRANCH  10  11
ATOM     11  C   UNL     1      15.996  15.851  12.998  1.00  0.00     0.000 C 
BRANCH  11  12
ATOM     12  C   UNL     1      16.571  14.420  12.998  1.00  0.00     0.000 C 
BRANCH  12  13
ATOM     13  C   UNL     1      16.638  13.745  11.619  1.00  0.00     0.006 C 
BRANCH  13  14
ATOM     14  C   UNL     1      15.268  13.647  10.934  1.00  0.00     0.053 C 
BRANCH  14  15
ATOM     15  C   UNL     1      14.586  12.370  11.305  1.00  0.00     0.041 C 
ATOM     16  O   UNL     1      14.530  12.010  12.512  1.00  0.00    -0.550 OA
ATOM     17  O   UNL     1      13.982  11.591  10.323  1.00  0.00    -0.550 OA
ENDBRANCH  14  15
ENDBRANCH  13  14
ENDBRANCH  12  13
ENDBRANCH  11  12
ENDBRANCH  10  11
ENDBRANCH   9  10
ENDBRANCH   8   9
ENDBRANCH   7   8
ENDBRANCH   6   7
ENDBRANCH   5   6
ENDBRANCH   4   5
ENDBRANCH   3   4
ENDBRANCH   2   3
ENDBRANCH   1   2
BRANCH   1  18
ATOM     18  C   UNL     1      16.135  16.396   5.253  1.00  0.00     0.000 C 
BRANCH  18  19
ATOM     19  C   UNL     1      17.123  17.577   5.256  1.00  0.00     0.000 C 
BRANCH  19  20
ATOM     20  C   UNL     1      17.125  18.428   3.970  1.00  0.00     0.000 C 
BRANCH  20  21
ATOM     21  C   UNL     1      16.149  17.957   2.876  1.00  0.00     0.000 C 
BRANCH  21  22
ATOM     22  C   UNL     1      16.647  18.274   1.458  1.00  0.00     0.000 C 
BRANCH  22  23
ATOM     23  C   UNL     1      15.531  18.892   0.602  1.00  0.00     0.000 C 
BRANCH  23  24
ATOM     24  C   UNL     1      15.871  20.313   0.119  1.00  0.00    -0.000 C 
BRANCH  24  25
ATOM     25  C   UNL     1      14.625  21.198  -0.045  1.00  0.00    -0.000 C 
BRANCH  25  26
ATOM     26  C   UNL     1      13.732  20.762  -1.222  1.00  0.00    -0.000 C 
BRANCH  26  27
ATOM     27  C   UNL     1      12.375  20.168  -0.786  1.00  0.00    -0.000 C 
BRANCH  27  28
ATOM     28  C   UNL     1      12.013  18.900  -1.586  1.00  0.00    -0.000 C 
BRANCH  28  29
ATOM     29  C   UNL     1      11.888  17.653  -0.696  1.00  0.00    -0.000 C 
BRANCH  29  30
ATOM     30  C   UNL     1      12.718  17.762   0.594  1.00  0.00    -0.000 C 
BRANCH  30  31
ATOM     31  C   UNL     1      12.742  16.449   1.390  1.00  0.00    -0.003 C 
ATOM     32  C   UNL     1      12.963  16.668   2.888  1.00  0.00     0.004 C 
ENDBRANCH  30  31
ENDBRANCH  29  30
ENDBRANCH  28  29
ENDBRANCH  27  28
ENDBRANCH  26  27
ENDBRANCH  25  26
ENDBRANCH  24  25
ENDBRANCH  23  24
ENDBRANCH  22  23
ENDBRANCH  21  22
ENDBRANCH  20  21
ENDBRANCH  19  20
ENDBRANCH  18  19
ENDBRANCH   1  18
TORSDOF 28
ENDMDL
