MODEL 1
REMARK VINA RESULT:    -3.902      0.000      0.000
REMARK INTER + INTRA:          -8.529
REMARK INTER:                  -6.640
REMARK INTRA:                  -1.889
REMARK UNBOUND:                -1.889
REMARK SMILES CCCCCCCCCCCCCC(=O)[O-]
REMARK SMILES IDX 8 1 9 2 10 3 11 4 12 5 13 6 14 7 15 8 16 9 7 10 6 11 5 12
REMARK SMILES IDX 4 13 3 14 2 15 1 16
REMARK H PARENT
REMARK Flexibility Score: inf
ROOT
ATOM      1  C   UNL     1       2.693  -0.459   6.367  1.00  0.00     0.000 C 
ENDROOT
BRANCH   1   2
ATOM      2  C   UNL     1       1.508   0.518   6.398  1.00  0.00     0.000 C 
BRANCH   2   3
ATOM      3  C   UNL     1       1.249   1.098   7.800  1.00  0.00     0.000 C 
BRANCH   3   4
ATOM      4  C   UNL     1       1.038   2.624   7.849  1.00  0.00     0.000 C 
BRANCH   4   5
ATOM      5  C   UNL     1       0.323   3.224   6.624  1.00  0.00     0.006 C 
BRANCH   5   6
ATOM      6  C   UNL     1      -1.204   3.112   6.712  1.00  0.00     0.053 C 
BRANCH   6   7
ATOM      7  C   UNL     1      -1.774   2.716   5.387  1.00  0.00     0.041 C 
ATOM      8  O   UNL     1      -2.864   2.089   5.328  1.00  0.00    -0.550 OA
ATOM      9  O   UNL     1      -1.126   3.082   4.214  1.00  0.00    -0.550 OA
ENDBRANCH   6   7
ENDBRANCH   5   6
ENDBRANCH   4   5
ENDBRANCH   3   4
ENDBRANCH   2   3
ENDBRANCH   1   2
BRANCH   1  10
ATOM     10  C   UNL     1       2.991  -1.005   7.771  1.00  0.00     0.000 C 
BRANCH  10  11
ATOM     11  C   UNL     1       4.479  -1.331   7.975  1.00  0.00    -0.000 C 
BRANCH  11  12
ATOM     12  C   UNL     1       5.370  -0.079   7.936  1.00  0.00    -0.000 C 
BRANCH  12  13
ATOM     13  C   UNL     1       4.910   1.012   8.919  1.00  0.00    -0.000 C 
BRANCH  13  14
ATOM     14  C   UNL     1       4.747   2.402   8.268  1.00  0.00    -0.000 C 
BRANCH  14  15
ATOM     15  C   UNL     1       4.838   2.341   6.737  1.00  0.00    -0.003 C 
ATOM     16  C   UNL     1       4.191   3.566   6.097  1.00  0.00     0.004 C 
ENDBRANCH  14  15
ENDBRANCH  13  14
ENDBRANCH  12  13
ENDBRANCH  11  12
ENDBRANCH  10  11
ENDBRANCH   1  10
TORSDOF 12
ENDMDL
MODEL 2
REMARK VINA RESULT:    -3.844      2.844      6.766
REMARK INTER + INTRA:          -8.429
REMARK INTER:                  -6.921
REMARK INTRA:                  -1.508
REMARK UNBOUND:                -1.889
REMARK SMILES CCCCCCCCCCCCCC(=O)[O-]
REMARK SMILES IDX 8 1 9 2 10 3 11 4 12 5 13 6 14 7 15 8 16 9 7 10 6 11 5 12
REMARK SMILES IDX 4 13 3 14 2 15 1 16
REMARK H PARENT
REMARK Flexibility Score: inf
ROOT
ATOM      1  C   UNL     1      -0.321   4.908   5.900  1.00  0.00     0.000 C 
ENDROOT
BRANCH   1   2
ATOM      2  C   UNL     1       1.129   4.408   5.972  1.00  0.00     0.000 C 
BRANCH   2   3
ATOM      3  C   UNL     1       1.575   4.073   7.407  1.00  0.00     0.000 C 
BRANCH   3   4
ATOM      4  C   UNL     1       0.736   2.993   8.120  1.00  0.00     0.000 C 
BRANCH   4   5
ATOM      5  C   UNL     1       0.983   1.552   7.638  1.00  0.00     0.006 C 
BRANCH   5   6
ATOM      6  C   UNL     1       2.420   1.078   7.892  1.00  0.00     0.053 C 
BRANCH   6   7
ATOM      7  C   UNL     1       3.088   0.728   6.600  1.00  0.00     0.041 C 
ATOM      8  O   UNL     1       2.610  -0.174   5.863  1.00  0.00    -0.550 OA
ATOM      9  O   UNL     1       4.213   1.430   6.186  1.00  0.00    -0.550 OA
ENDBRANCH   6   7
ENDBRANCH   5   6
ENDBRANCH   4   5
ENDBRANCH   3   4
ENDBRANCH   2   3
ENDBRANCH   1   2
BRANCH   1  10
ATOM     10  C   UNL     1      -1.096   4.184   4.789  1.00  0.00     0.000 C 
BRANCH  10  11
ATOM     11  C   UNL     1      -1.533   2.769   5.198  1.00  0.00    -0.000 C 
BRANCH  11  12
ATOM     12  C   UNL     1      -2.527   2.772   6.371  1.00  0.00    -0.000 C 
BRANCH  12  13
ATOM     13  C   UNL     1      -3.994   2.840   5.910  1.00  0.00    -0.000 C 
BRANCH  13  14
ATOM     14  C   UNL     1      -4.769   4.041   6.491  1.00  0.00    -0.000 C 
BRANCH  14  15
ATOM     15  C   UNL     1      -4.703   5.273   5.576  1.00  0.00    -0.003 C 
ATOM     16  C   UNL     1      -3.812   6.357   6.175  1.00  0.00     0.004 C 
ENDBRANCH  14  15
ENDBRANCH  13  14
ENDBRANCH  12  13
ENDBRANCH  11  12
ENDBRANCH  10  11
ENDBRANCH   1  10
TORSDOF 12
ENDMDL
MODEL 3
REMARK VINA RESULT:    -3.740      2.945      6.635
REMARK INTER + INTRA:          -8.253
REMARK INTER:                  -6.750
REMARK INTRA:                  -1.503
REMARK UNBOUND:                -1.889
REMARK SMILES CCCCCCCCCCCCCC(=O)[O-]
REMARK SMILES IDX 8 1 9 2 10 3 11 4 12 5 13 6 14 7 15 8 16 9 7 10 6 11 5 12
REMARK SMILES IDX 4 13 3 14 2 15 1 16
REMARK H PARENT
REMARK Flexibility Score: inf
ROOT
ATOM      1  C   UNL     1       1.234   4.920   5.972  1.00  0.00     0.000 C 
ENDROOT
BRANCH   1   2
ATOM      2  C   UNL     1       2.039   3.760   6.576  1.00  0.00     0.000 C 
BRANCH   2   3
ATOM      3  C   UNL     1       1.363   3.142   7.812  1.00  0.00     0.000 C 
BRANCH   3   4
ATOM      4  C   UNL     1       1.338   1.601   7.844  1.00  0.00     0.000 C 
BRANCH   4   5
ATOM      5  C   UNL     1       1.394   0.918   6.466  1.00  0.00     0.006 C 
BRANCH   5   6
ATOM      6  C   UNL     1       2.532  -0.104   6.353  1.00  0.00     0.053 C 
BRANCH   6   7
ATOM      7  C   UNL     1       3.743   0.382   7.085  1.00  0.00     0.041 C 
ATOM      8  O   UNL     1       4.053  -0.116   8.199  1.00  0.00    -0.550 OA
ATOM      9  O   UNL     1       4.557   1.353   6.515  1.00  0.00    -0.550 OA
ENDBRANCH   6   7
ENDBRANCH   5   6
ENDBRANCH   4   5
ENDBRANCH   3   4
ENDBRANCH   2   3
ENDBRANCH   1   2
BRANCH   1  10
ATOM     10  C   UNL     1      -0.275   4.651   6.072  1.00  0.00     0.000 C 
BRANCH  10  11
ATOM     11  C   UNL     1      -0.842   3.986   4.808  1.00  0.00    -0.000 C 
BRANCH  11  12
ATOM     12  C   UNL     1      -1.586   2.676   5.111  1.00  0.00    -0.000 C 
BRANCH  12  13
ATOM     13  C   UNL     1      -2.485   2.774   6.356  1.00  0.00    -0.000 C 
BRANCH  13  14
ATOM     14  C   UNL     1      -3.994   2.718   6.035  1.00  0.00    -0.000 C 
BRANCH  14  15
ATOM     15  C   UNL     1      -4.650   4.106   6.075  1.00  0.00    -0.003 C 
ATOM     16  C   UNL     1      -4.004   4.990   7.137  1.00  0.00     0.004 C 
ENDBRANCH  14  15
ENDBRANCH  13  14
ENDBRANCH  12  13
ENDBRANCH  11  12
ENDBRANCH  10  11
ENDBRANCH   1  10
TORSDOF 12
ENDMDL
MODEL 4
REMARK VINA RESULT:    -3.726      1.246      3.111
REMARK INTER + INTRA:          -8.229
REMARK INTER:                  -6.768
REMARK INTRA:                  -1.461
REMARK UNBOUND:                -1.889
REMARK SMILES CCCCCCCCCCCCCC(=O)[O-]
REMARK SMILES IDX 8 1 9 2 10 3 11 4 12 5 13 6 14 7 15 8 16 9 7 10 6 11 5 12
REMARK SMILES IDX 4 13 3 14 2 15 1 16
REMARK H PARENT
REMARK Flexibility Score: inf
ROOT
ATOM      1  C   UNL     1       2.208   4.028   6.515  1.00  0.00     0.000 C 
ENDROOT
BRANCH   1   2
ATOM      2  C   UNL     1       1.592   3.245   7.684  1.00  0.00     0.000 C 
BRANCH   2   3
ATOM      3  C   UNL     1       0.195   2.687   7.359  1.00  0.00     0.000 C 
BRANCH   3   4
ATOM      4  C   UNL     1      -0.044   2.343   5.875  1.00  0.00     0.000 C 
BRANCH   4   5
ATOM      5  C   UNL     1      -1.095   3.214   5.163  1.00  0.00     0.006 C 
BRANCH   5   6
ATOM      6  C   UNL     1      -2.180   3.734   6.115  1.00  0.00     0.053 C 
BRANCH   6   7
ATOM      7  C   UNL     1      -3.461   2.992   5.899  1.00  0.00     0.041 C 
ATOM      8  O   UNL     1      -4.566   3.572   6.071  1.00  0.00    -0.550 OA
ATOM      9  O   UNL     1      -3.436   1.674   5.462  1.00  0.00    -0.550 OA
ENDBRANCH   6   7
ENDBRANCH   5   6
ENDBRANCH   4   5
ENDBRANCH   3   4
ENDBRANCH   2   3
ENDBRANCH   1   2
BRANCH   1  10
ATOM     10  C   UNL     1       3.602   3.486   6.167  1.00  0.00     0.000 C 
BRANCH  10  11
ATOM     11  C   UNL     1       4.306   2.844   7.373  1.00  0.00    -0.000 C 
BRANCH  11  12
ATOM     12  C   UNL     1       4.878   1.454   7.053  1.00  0.00    -0.000 C 
BRANCH  12  13
ATOM     13  C   UNL     1       4.766   0.475   8.236  1.00  0.00    -0.000 C 
BRANCH  13  14
ATOM     14  C   UNL     1       3.892  -0.761   7.934  1.00  0.00    -0.000 C 
BRANCH  14  15
ATOM     15  C   UNL     1       2.437  -0.382   7.619  1.00  0.00    -0.003 C 
ATOM     16  C   UNL     1       2.076  -0.737   6.180  1.00  0.00     0.004 C 
ENDBRANCH  14  15
ENDBRANCH  13  14
ENDBRANCH  12  13
ENDBRANCH  11  12
ENDBRANCH  10  11
ENDBRANCH   1  10
TORSDOF 12
ENDMDL
MODEL 5
REMARK VINA RESULT:    -3.724     13.199     15.101
REMARK INTER + INTRA:          -8.225
REMARK INTER:                  -6.534
REMARK INTRA:                  -1.691
REMARK UNBOUND:                -1.889
REMARK SMILES CCCCCCCCCCCCCC(=O)[O-]
REMARK SMILES IDX 8 1 9 2 10 3 11 4 12 5 13 6 14 7 15 8 16 9 7 10 6 11 5 12
REMARK SMILES IDX 4 13 3 14 2 15 1 16
REMARK H PARENT
REMARK Flexibility Score: inf
ROOT
ATOM      1  C   UNL     1      -3.730  -0.120  -7.134  1.00  0.00     0.000 C 
ENDROOT
BRANCH   1   2
ATOM      2  C   UNL     1      -5.239  -0.318  -7.345  1.00  0.00     0.000 C 
BRANCH   2   3
ATOM      3  C   UNL     1      -5.596  -1.746  -7.797  1.00  0.00     0.000 C 
BRANCH   3   4
ATOM      4  C   UNL     1      -6.169  -2.659  -6.694  1.00  0.00     0.000 C 
BRANCH   4   5
ATOM      5  C   UNL     1      -5.237  -3.796  -6.239  1.00  0.00     0.006 C 
BRANCH   5   6
ATOM      6  C   UNL     1      -4.944  -3.760  -4.733  1.00  0.00     0.053 C 
BRANCH   6   7
ATOM      7  C   UNL     1      -4.889  -5.149  -4.180  1.00  0.00     0.041 C 
ATOM      8  O   UNL     1      -5.112  -6.138  -4.927  1.00  0.00    -0.550 OA
ATOM      9  O   UNL     1      -4.544  -5.354  -2.850  1.00  0.00    -0.550 OA
ENDBRANCH   6   7
ENDBRANCH   5   6
ENDBRANCH   4   5
ENDBRANCH   3   4
ENDBRANCH   2   3
ENDBRANCH   1   2
BRANCH   1  10
ATOM     10  C   UNL     1      -3.342  -0.381  -5.671  1.00  0.00     0.000 C 
BRANCH  10  11
ATOM     11  C   UNL     1      -2.208  -1.410  -5.534  1.00  0.00    -0.000 C 
BRANCH  11  12
ATOM     12  C   UNL     1      -1.935  -2.166  -6.844  1.00  0.00    -0.000 C 
BRANCH  12  13
ATOM     13  C   UNL     1      -1.269  -3.534  -6.616  1.00  0.00    -0.000 C 
BRANCH  13  14
ATOM     14  C   UNL     1      -1.416  -4.060  -5.172  1.00  0.00    -0.000 C 
BRANCH  14  15
ATOM     15  C   UNL     1      -0.064  -4.167  -4.452  1.00  0.00    -0.003 C 
ATOM     16  C   UNL     1       0.968  -4.881  -5.320  1.00  0.00     0.004 C 
ENDBRANCH  14  15
ENDBRANCH  13  14
ENDBRANCH  12  13
ENDBRANCH  11  12
ENDBRANCH  10  11
ENDBRANCH   1  10
TORSDOF 12
ENDMDL
MODEL 6
REMARK VINA RESULT:    -3.707     13.080     15.255
REMARK INTER + INTRA:          -8.197
REMARK INTER:                  -6.899
REMARK INTRA:                  -1.298
REMARK UNBOUND:                -1.889
REMARK SMILES CCCCCCCCCCCCCC(=O)[O-]
REMARK SMILES IDX 8 1 9 2 10 3 11 4 12 5 13 6 14 7 15 8 16 9 7 10 6 11 5 12
REMARK SMILES IDX 4 13 3 14 2 15 1 16
REMARK H PARENT
REMARK Flexibility Score: inf
ROOT
ATOM      1  C   UNL     1      -4.863  -1.374  -7.503  1.00  0.00     0.000 C 
ENDROOT
BRANCH   1   2
ATOM      2  C   UNL     1      -5.913  -2.139  -6.684  1.00  0.00     0.000 C 
BRANCH   2   3
ATOM      3  C   UNL     1      -5.397  -3.494  -6.168  1.00  0.00     0.000 C 
BRANCH   3   4
ATOM      4  C   UNL     1      -4.963  -3.510  -4.688  1.00  0.00     0.000 C 
BRANCH   4   5
ATOM      5  C   UNL     1      -4.723  -4.909  -4.093  1.00  0.00     0.006 C 
BRANCH   5   6
ATOM      6  C   UNL     1      -5.106  -6.040  -5.057  1.00  0.00     0.053 C 
BRANCH   6   7
ATOM      7  C   UNL     1      -6.034  -7.002  -4.387  1.00  0.00     0.041 C 
ATOM      8  O   UNL     1      -6.019  -7.131  -3.135  1.00  0.00    -0.550 OA
ATOM      9  O   UNL     1      -6.950  -7.724  -5.142  1.00  0.00    -0.550 OA
ENDBRANCH   6   7
ENDBRANCH   5   6
ENDBRANCH   4   5
ENDBRANCH   3   4
ENDBRANCH   2   3
ENDBRANCH   1   2
BRANCH   1  10
ATOM     10  C   UNL     1      -4.413  -0.103  -6.767  1.00  0.00     0.000 C 
BRANCH  10  11
ATOM     11  C   UNL     1      -2.890  -0.041  -6.571  1.00  0.00    -0.000 C 
BRANCH  11  12
ATOM     12  C   UNL     1      -2.330  -1.298  -5.886  1.00  0.00    -0.000 C 
BRANCH  12  13
ATOM     13  C   UNL     1      -0.850  -1.551  -6.220  1.00  0.00    -0.000 C 
BRANCH  13  14
ATOM     14  C   UNL     1      -0.239  -2.746  -5.457  1.00  0.00    -0.000 C 
BRANCH  14  15
ATOM     15  C   UNL     1      -1.301  -3.775  -5.042  1.00  0.00    -0.003 C 
ATOM     16  C   UNL     1      -1.078  -4.249  -3.609  1.00  0.00     0.004 C 
ENDBRANCH  14  15
ENDBRANCH  13  14
ENDBRANCH  12  13
ENDBRANCH  11  12
ENDBRANCH  10  11
ENDBRANCH   1  10
TORSDOF 12
ENDMDL
MODEL 7
REMARK VINA RESULT:    -3.698     13.094     15.421
REMARK INTER + INTRA:          -8.181
REMARK INTER:                  -6.230
REMARK INTRA:                  -1.951
REMARK UNBOUND:                -1.889
REMARK SMILES CCCCCCCCCCCCCC(=O)[O-]
REMARK SMILES IDX 8 1 9 2 10 3 11 4 12 5 13 6 14 7 15 8 16 9 7 10 6 11 5 12
REMARK SMILES IDX 4 13 3 14 2 15 1 16
REMARK H PARENT
REMARK Flexibility Score: inf
ROOT
ATOM      1  C   UNL     1      -4.375  -0.718  -7.377  1.00  0.00     0.000 C 
ENDROOT
BRANCH   1   2
ATOM      2  C   UNL     1      -3.672  -0.202  -6.113  1.00  0.00     0.000 C 
BRANCH   2   3
ATOM      3  C   UNL     1      -2.460  -1.062  -5.710  1.00  0.00     0.000 C 
BRANCH   3   4
ATOM      4  C   UNL     1      -1.727  -1.751  -6.880  1.00  0.00     0.000 C 
BRANCH   4   5
ATOM      5  C   UNL     1      -0.963  -3.034  -6.506  1.00  0.00     0.006 C 
BRANCH   5   6
ATOM      6  C   UNL     1      -0.302  -2.952  -5.125  1.00  0.00     0.053 C 
BRANCH   6   7
ATOM      7  C   UNL     1      -0.750  -4.090  -4.264  1.00  0.00     0.041 C 
ATOM      8  O   UNL     1      -0.914  -3.923  -3.027  1.00  0.00    -0.550 OA
ATOM      9  O   UNL     1      -1.034  -5.324  -4.835  1.00  0.00    -0.550 OA
ENDBRANCH   6   7
ENDBRANCH   5   6
ENDBRANCH   4   5
ENDBRANCH   3   4
ENDBRANCH   2   3
ENDBRANCH   1   2
BRANCH   1  10
ATOM     10  C   UNL     1      -5.847  -1.049  -7.089  1.00  0.00     0.000 C 
BRANCH  10  11
ATOM     11  C   UNL     1      -6.035  -2.470  -6.533  1.00  0.00    -0.000 C 
BRANCH  11  12
ATOM     12  C   UNL     1      -5.081  -3.489  -7.177  1.00  0.00    -0.000 C 
BRANCH  12  13
ATOM     13  C   UNL     1      -4.333  -4.344  -6.140  1.00  0.00    -0.000 C 
BRANCH  13  14
ATOM     14  C   UNL     1      -4.551  -3.881  -4.683  1.00  0.00    -0.000 C 
BRANCH  14  15
ATOM     15  C   UNL     1      -4.427  -5.038  -3.681  1.00  0.00    -0.003 C 
ATOM     16  C   UNL     1      -5.139  -6.287  -4.190  1.00  0.00     0.004 C 
ENDBRANCH  14  15
ENDBRANCH  13  14
ENDBRANCH  12  13
ENDBRANCH  11  12
ENDBRANCH  10  11
ENDBRANCH   1  10
TORSDOF 12
ENDMDL
MODEL 8
REMARK VINA RESULT:    -3.651      2.665      6.276
REMARK INTER + INTRA:          -8.101
REMARK INTER:                  -6.513
REMARK INTRA:                  -1.588
REMARK UNBOUND:                -1.889
REMARK SMILES CCCCCCCCCCCCCC(=O)[O-]
REMARK SMILES IDX 8 1 9 2 10 3 11 4 12 5 13 6 14 7 15 8 16 9 7 10 6 11 5 12
REMARK SMILES IDX 4 13 3 14 2 15 1 16
REMARK H PARENT
REMARK Flexibility Score: inf
ROOT
ATOM      1  C   UNL     1       1.015   3.288   7.822  1.00  0.00     0.000 C 
ENDROOT
BRANCH   1   2
ATOM      2  C   UNL     1       0.846   1.762   7.846  1.00  0.00     0.000 C 
BRANCH   2   3
ATOM      3  C   UNL     1       1.175   1.102   6.495  1.00  0.00     0.000 C 
BRANCH   3   4
ATOM      4  C   UNL     1       2.144  -0.095   6.569  1.00  0.00     0.000 C 
BRANCH   4   5
ATOM      5  C   UNL     1       3.174  -0.031   7.712  1.00  0.00     0.006 C 
BRANCH   5   6
ATOM      6  C   UNL     1       4.557   0.438   7.241  1.00  0.00     0.053 C 
BRANCH   6   7
ATOM      7  C   UNL     1       4.571   1.923   7.063  1.00  0.00     0.041 C 
ATOM      8  O   UNL     1       4.605   2.423   5.908  1.00  0.00    -0.550 OA
ATOM      9  O   UNL     1       4.498   2.756   8.172  1.00  0.00    -0.550 OA
ENDBRANCH   6   7
ENDBRANCH   5   6
ENDBRANCH   4   5
ENDBRANCH   3   4
ENDBRANCH   2   3
ENDBRANCH   1   2
BRANCH   1  10
ATOM     10  C   UNL     1       1.391   3.775   6.415  1.00  0.00     0.000 C 
BRANCH  10  11
ATOM     11  C   UNL     1       1.166   5.284   6.231  1.00  0.00    -0.000 C 
BRANCH  11  12
ATOM     12  C   UNL     1      -0.144   5.601   5.491  1.00  0.00    -0.000 C 
BRANCH  12  13
ATOM     13  C   UNL     1      -0.791   4.355   4.863  1.00  0.00    -0.000 C 
BRANCH  13  14
ATOM     14  C   UNL     1      -2.146   3.975   5.498  1.00  0.00    -0.000 C 
BRANCH  14  15
ATOM     15  C   UNL     1      -2.256   2.470   5.781  1.00  0.00    -0.003 C 
ATOM     16  C   UNL     1      -3.703   2.060   6.031  1.00  0.00     0.004 C 
ENDBRANCH  14  15
ENDBRANCH  13  14
ENDBRANCH  12  13
ENDBRANCH  11  12
ENDBRANCH  10  11
ENDBRANCH   1  10
TORSDOF 12
ENDMDL
MODEL 9
REMARK VINA RESULT:    -3.574      0.992      2.931
REMARK INTER + INTRA:          -7.970
REMARK INTER:                  -6.223
REMARK INTRA:                  -1.746
REMARK UNBOUND:                -1.889
REMARK SMILES CCCCCCCCCCCCCC(=O)[O-]
REMARK SMILES IDX 8 1 9 2 10 3 11 4 12 5 13 6 14 7 15 8 16 9 7 10 6 11 5 12
REMARK SMILES IDX 4 13 3 14 2 15 1 16
REMARK H PARENT
REMARK Flexibility Score: inf
ROOT
ATOM      1  C   UNL     1       4.336   3.151   8.575  1.00  0.00     0.000 C 
ENDROOT
BRANCH   1   2
ATOM      2  C   UNL     1       4.502   3.502   7.090  1.00  0.00     0.000 C 
BRANCH   2   3
ATOM      3  C   UNL     1       3.157   3.617   6.349  1.00  0.00     0.000 C 
BRANCH   3   4
ATOM      4  C   UNL     1       1.907   3.380   7.220  1.00  0.00     0.000 C 
BRANCH   4   5
ATOM      5  C   UNL     1       0.567   3.733   6.549  1.00  0.00     0.006 C 
BRANCH   5   6
ATOM      6  C   UNL     1      -0.204   2.496   6.071  1.00  0.00     0.053 C 
BRANCH   6   7
ATOM      7  C   UNL     1      -1.307   2.895   5.144  1.00  0.00     0.041 C 
ATOM      8  O   UNL     1      -2.493   2.545   5.381  1.00  0.00    -0.550 OA
ATOM      9  O   UNL     1      -1.034   3.695   4.042  1.00  0.00    -0.550 OA
ENDBRANCH   6   7
ENDBRANCH   5   6
ENDBRANCH   4   5
ENDBRANCH   3   4
ENDBRANCH   2   3
ENDBRANCH   1   2
BRANCH   1  10
ATOM     10  C   UNL     1       5.311   2.039   8.989  1.00  0.00     0.000 C 
BRANCH  10  11
ATOM     11  C   UNL     1       5.857   1.254   7.786  1.00  0.00    -0.000 C 
BRANCH  11  12
ATOM     12  C   UNL     1       5.715  -0.267   7.959  1.00  0.00    -0.000 C 
BRANCH  12  13
ATOM     13  C   UNL     1       4.253  -0.741   7.894  1.00  0.00    -0.000 C 
BRANCH  13  14
ATOM     14  C   UNL     1       3.466  -0.158   6.700  1.00  0.00    -0.000 C 
BRANCH  14  15
ATOM     15  C   UNL     1       1.948  -0.310   6.874  1.00  0.00    -0.003 C 
ATOM     16  C   UNL     1       1.544  -0.166   8.337  1.00  0.00     0.004 C 
ENDBRANCH  14  15
ENDBRANCH  13  14
ENDBRANCH  12  13
ENDBRANCH  11  12
ENDBRANCH  10  11
ENDBRANCH   1  10
TORSDOF 12
ENDMDL
