MODEL 1
REMARK VINA RESULT:    -6.169      0.000      0.000
REMARK INTER + INTRA:         -10.196
REMARK INTER:                  -8.513
REMARK INTRA:                  -1.683
REMARK UNBOUND:                -1.683
REMARK SMILES CC[C@H](CC[C@@H](C)[C@@H]1CC[C@@H]2[C@@H]3CC=C4C[C@@H](O)CC[C@@]4(C)[C@H]3CC[C@]21C)C(C)C
REMARK SMILES IDX 5 1 4 2 3 3 2 4 1 5 28 6 29 7 30 8 6 9 7 10 8 11 9 12 26 13
REMARK SMILES IDX 10 14 11 15 25 16 27 17 12 18 24 19 23 20 13 21 21 22 14 23
REMARK SMILES IDX 15 24 20 25 22 26 16 27 19 28 17 29 18 30
REMARK H PARENT 18 31
REMARK Flexibility Score: inf
ROOT
ATOM      1  C   UNL     1     130.973 145.217 105.759  1.00  0.00     0.004 C 
ENDROOT
BRANCH   1   2
ATOM      2  C   UNL     1     132.097 146.238 106.058  1.00  0.00     0.004 C 
BRANCH   2   3
ATOM      3  C   UNL     1     133.480 145.600 106.376  1.00  0.00    -0.009 C 
BRANCH   3   4
ATOM      4  C   UNL     1     133.345 144.077 106.715  1.00  0.00     0.000 C 
ATOM      5  C   UNL     1     133.853 143.750 108.121  1.00  0.00     0.004 C 
ENDBRANCH   3   4
BRANCH   3   6
ATOM      6  C   UNL     1     134.501 145.890 105.229  1.00  0.00    -0.014 C 
ATOM      7  C   UNL     1     134.607 144.759 104.193  1.00  0.00     0.007 C 
ATOM      8  C   UNL     1     135.891 146.261 105.767  1.00  0.00     0.007 C 
ENDBRANCH   3   6
ENDBRANCH   2   3
ENDBRANCH   1   2
BRANCH   1   9
ATOM      9  C   UNL     1     129.616 145.404 106.509  1.00  0.00    -0.011 C 
ATOM     10  C   UNL     1     128.433 145.050 105.574  1.00  0.00     0.008 C 
BRANCH   9  11
ATOM     11  C   UNL     1     129.580 144.512 107.810  1.00  0.00    -0.002 C 
ATOM     12  C   UNL     1     128.314 143.612 107.937  1.00  0.00     0.005 C 
ATOM     13  C   UNL     1     129.657 145.225 109.206  1.00  0.00    -0.026 C 
ATOM     14  C   UNL     1     128.035 143.423 109.437  1.00  0.00     0.005 C 
ATOM     15  C   UNL     1     129.243 144.055 110.115  1.00  0.00    -0.001 C 
ATOM     16  C   UNL     1     131.089 145.705 109.637  1.00  0.00     0.007 C 
ATOM     17  C   UNL     1     128.636 146.408 109.238  1.00  0.00     0.012 C 
ATOM     18  C   UNL     1     129.236 144.316 111.654  1.00  0.00     0.000 C 
ATOM     19  C   UNL     1     131.445 145.474 111.135  1.00  0.00     0.005 C 
ATOM     20  C   UNL     1     130.198 145.464 112.055  1.00  0.00     0.003 C 
ATOM     21  C   UNL     1     127.883 144.584 112.319  1.00  0.00     0.031 C 
ATOM     22  C   UNL     1     130.480 145.445 113.610  1.00  0.00    -0.008 C 
ATOM     23  C   UNL     1     128.073 144.613 113.819  1.00  0.00    -0.027 C 
ATOM     24  C   UNL     1     129.244 144.960 114.408  1.00  0.00    -0.065 C 
ATOM     25  C   UNL     1     131.685 144.506 113.947  1.00  0.00     0.014 C 
ATOM     26  C   UNL     1     130.803 146.896 114.070  1.00  0.00     0.016 C 
ATOM     27  C   UNL     1     129.421 144.689 115.892  1.00  0.00     0.063 C 
ATOM     28  C   UNL     1     131.866 144.248 115.452  1.00  0.00     0.033 C 
ATOM     29  C   UNL     1     130.578 143.705 116.104  1.00  0.00     0.118 C 
BRANCH  29  30
ATOM     30  O   UNL     1     130.226 142.461 115.553  1.00  0.00    -0.393 OA
ATOM     31  H   UNL     1     129.573 142.030 116.164  1.00  0.00     0.210 HD
ENDBRANCH  29  30
ENDBRANCH   9  11
ENDBRANCH   1   9
TORSDOF 7
ENDMDL
MODEL 2
REMARK VINA RESULT:    -6.132      2.862      4.843
REMARK INTER + INTRA:         -10.145
REMARK INTER:                  -8.401
REMARK INTRA:                  -1.744
REMARK UNBOUND:                -1.683
REMARK SMILES CC[C@H](CC[C@@H](C)[C@@H]1CC[C@@H]2[C@@H]3CC=C4C[C@@H](O)CC[C@@]4(C)[C@H]3CC[C@]21C)C(C)C
REMARK SMILES IDX 5 1 4 2 3 3 2 4 1 5 28 6 29 7 30 8 6 9 7 10 8 11 9 12 26 13
REMARK SMILES IDX 10 14 11 15 25 16 27 17 12 18 24 19 23 20 13 21 21 22 14 23
REMARK SMILES IDX 15 24 20 25 22 26 16 27 19 28 17 29 18 30
REMARK H PARENT 18 31
REMARK Flexibility Score: inf
ROOT
ATOM      1  C   UNL     1     126.915 141.679 106.299  1.00  0.00     0.004 C 
ENDROOT
BRANCH   1   2
ATOM      2  C   UNL     1     127.426 140.376 106.960  1.00  0.00     0.004 C 
BRANCH   2   3
ATOM      3  C   UNL     1     128.615 139.699 106.218  1.00  0.00    -0.009 C 
BRANCH   3   4
ATOM      4  C   UNL     1     129.976 139.979 106.940  1.00  0.00     0.000 C 
ATOM      5  C   UNL     1     130.960 140.735 106.047  1.00  0.00     0.004 C 
ENDBRANCH   3   4
BRANCH   3   6
ATOM      6  C   UNL     1     128.334 138.178 105.995  1.00  0.00    -0.014 C 
ATOM      7  C   UNL     1     127.588 137.871 104.686  1.00  0.00     0.007 C 
ATOM      8  C   UNL     1     127.612 137.538 107.189  1.00  0.00     0.007 C 
ENDBRANCH   3   6
ENDBRANCH   2   3
ENDBRANCH   1   2
BRANCH   1   9
ATOM      9  C   UNL     1     127.891 142.898 106.265  1.00  0.00    -0.011 C 
ATOM     10  C   UNL     1     127.587 143.794 105.038  1.00  0.00     0.008 C 
BRANCH   9  11
ATOM     11  C   UNL     1     127.778 143.729 107.600  1.00  0.00    -0.002 C 
ATOM     12  C   UNL     1     127.518 145.251 107.389  1.00  0.00     0.005 C 
ATOM     13  C   UNL     1     128.989 143.705 108.599  1.00  0.00    -0.026 C 
ATOM     14  C   UNL     1     128.156 145.994 108.575  1.00  0.00     0.005 C 
ATOM     15  C   UNL     1     128.590 144.877 109.514  1.00  0.00    -0.001 C 
ATOM     16  C   UNL     1     129.110 142.409 109.477  1.00  0.00     0.007 C 
ATOM     17  C   UNL     1     130.312 143.975 107.812  1.00  0.00     0.012 C 
ATOM     18  C   UNL     1     129.524 145.183 110.726  1.00  0.00     0.000 C 
ATOM     19  C   UNL     1     129.501 142.647 110.965  1.00  0.00     0.005 C 
ATOM     20  C   UNL     1     130.335 143.938 111.168  1.00  0.00     0.003 C 
ATOM     21  C   UNL     1     130.502 146.353 110.585  1.00  0.00     0.031 C 
ATOM     22  C   UNL     1     130.951 144.149 112.609  1.00  0.00    -0.008 C 
ATOM     23  C   UNL     1     131.163 146.601 111.923  1.00  0.00    -0.027 C 
ATOM     24  C   UNL     1     131.335 145.630 112.852  1.00  0.00    -0.065 C 
ATOM     25  C   UNL     1     129.939 143.712 113.718  1.00  0.00     0.014 C 
ATOM     26  C   UNL     1     132.249 143.298 112.719  1.00  0.00     0.016 C 
ATOM     27  C   UNL     1     131.746 146.032 114.258  1.00  0.00     0.063 C 
ATOM     28  C   UNL     1     130.369 144.110 115.139  1.00  0.00     0.033 C 
ATOM     29  C   UNL     1     130.654 145.621 115.254  1.00  0.00     0.118 C 
BRANCH  29  30
ATOM     30  O   UNL     1     129.494 146.369 114.994  1.00  0.00    -0.393 OA
ATOM     31  H   UNL     1     129.544 147.206 115.526  1.00  0.00     0.210 HD
ENDBRANCH  29  30
ENDBRANCH   9  11
ENDBRANCH   1   9
TORSDOF 7
ENDMDL
MODEL 3
REMARK VINA RESULT:    -6.115      2.798      7.357
REMARK INTER + INTRA:         -10.121
REMARK INTER:                  -7.999
REMARK INTRA:                  -2.123
REMARK UNBOUND:                -1.683
REMARK SMILES CC[C@H](CC[C@@H](C)[C@@H]1CC[C@@H]2[C@@H]3CC=C4C[C@@H](O)CC[C@@]4(C)[C@H]3CC[C@]21C)C(C)C
REMARK SMILES IDX 5 1 4 2 3 3 2 4 1 5 28 6 29 7 30 8 6 9 7 10 8 11 9 12 26 13
REMARK SMILES IDX 10 14 11 15 25 16 27 17 12 18 24 19 23 20 13 21 21 22 14 23
REMARK SMILES IDX 15 24 20 25 22 26 16 27 19 28 17 29 18 30
REMARK H PARENT 18 31
REMARK Flexibility Score: inf
ROOT
ATOM      1  C   UNL     1     127.542 142.853 107.524  1.00  0.00     0.004 C 
ENDROOT
BRANCH   1   2
ATOM      2  C   UNL     1     127.639 143.841 108.712  1.00  0.00     0.004 C 
BRANCH   2   3
ATOM      3  C   UNL     1     128.136 143.205 110.042  1.00  0.00    -0.009 C 
BRANCH   3   4
ATOM      4  C   UNL     1     128.542 141.706 109.845  1.00  0.00     0.000 C 
ATOM      5  C   UNL     1     129.893 141.382 110.485  1.00  0.00     0.004 C 
ENDBRANCH   3   4
BRANCH   3   6
ATOM      6  C   UNL     1     129.267 144.073 110.682  1.00  0.00    -0.014 C 
ATOM      7  C   UNL     1     129.078 144.324 112.188  1.00  0.00     0.007 C 
ATOM      8  C   UNL     1     129.476 145.399 109.937  1.00  0.00     0.007 C 
ENDBRANCH   3   6
ENDBRANCH   2   3
ENDBRANCH   1   2
BRANCH   1   9
ATOM      9  C   UNL     1     128.465 143.118 106.293  1.00  0.00    -0.011 C 
ATOM     10  C   UNL     1     127.625 143.623 105.092  1.00  0.00     0.008 C 
BRANCH   9  11
ATOM     11  C   UNL     1     129.588 144.162 106.662  1.00  0.00    -0.002 C 
ATOM     12  C   UNL     1     129.476 145.520 105.906  1.00  0.00     0.005 C 
ATOM     13  C   UNL     1     131.088 143.752 106.447  1.00  0.00    -0.026 C 
ATOM     14  C   UNL     1     130.900 146.081 105.757  1.00  0.00     0.005 C 
ATOM     15  C   UNL     1     131.754 145.133 106.587  1.00  0.00    -0.001 C 
ATOM     16  C   UNL     1     131.688 142.798 107.541  1.00  0.00     0.007 C 
ATOM     17  C   UNL     1     131.255 143.142 105.018  1.00  0.00     0.012 C 
ATOM     18  C   UNL     1     133.310 145.185 106.493  1.00  0.00     0.000 C 
ATOM     19  C   UNL     1     133.143 143.127 107.984  1.00  0.00     0.005 C 
ATOM     20  C   UNL     1     133.964 143.833 106.875  1.00  0.00     0.003 C 
ATOM     21  C   UNL     1     133.922 145.642 105.165  1.00  0.00     0.031 C 
ATOM     22  C   UNL     1     135.509 144.015 107.162  1.00  0.00    -0.008 C 
ATOM     23  C   UNL     1     135.414 145.811 105.346  1.00  0.00    -0.027 C 
ATOM     24  C   UNL     1     136.128 145.114 106.264  1.00  0.00    -0.065 C 
ATOM     25  C   UNL     1     135.757 144.399 108.657  1.00  0.00     0.014 C 
ATOM     26  C   UNL     1     136.231 142.675 106.838  1.00  0.00     0.016 C 
ATOM     27  C   UNL     1     137.553 145.552 106.562  1.00  0.00     0.063 C 
ATOM     28  C   UNL     1     137.204 144.826 108.953  1.00  0.00     0.033 C 
ATOM     29  C   UNL     1     137.667 145.973 108.033  1.00  0.00     0.118 C 
BRANCH  29  30
ATOM     30  O   UNL     1     136.890 147.125 108.240  1.00  0.00    -0.393 OA
ATOM     31  H   UNL     1     136.003 146.838 108.581  1.00  0.00     0.210 HD
ENDBRANCH  29  30
ENDBRANCH   9  11
ENDBRANCH   1   9
TORSDOF 7
ENDMDL
MODEL 4
REMARK VINA RESULT:    -5.877      3.604     10.267
REMARK INTER + INTRA:          -9.793
REMARK INTER:                  -7.790
REMARK INTRA:                  -2.003
REMARK UNBOUND:                -1.683
REMARK SMILES CC[C@H](CC[C@@H](C)[C@@H]1CC[C@@H]2[C@@H]3CC=C4C[C@@H](O)CC[C@@]4(C)[C@H]3CC[C@]21C)C(C)C
REMARK SMILES IDX 5 1 4 2 3 3 2 4 1 5 28 6 29 7 30 8 6 9 7 10 8 11 9 12 26 13
REMARK SMILES IDX 10 14 11 15 25 16 27 17 12 18 24 19 23 20 13 21 21 22 14 23
REMARK SMILES IDX 15 24 20 25 22 26 16 27 19 28 17 29 18 30
REMARK H PARENT 18 31
REMARK Flexibility Score: inf
ROOT
ATOM      1  C   UNL     1     129.412 145.830 120.384  1.00  0.00     0.004 C 
ENDROOT
BRANCH   1   2
ATOM      2  C   UNL     1     130.206 144.548 120.733  1.00  0.00     0.004 C 
BRANCH   2   3
ATOM      3  C   UNL     1     129.369 143.237 120.688  1.00  0.00    -0.009 C 
BRANCH   3   4
ATOM      4  C   UNL     1     130.108 142.111 119.889  1.00  0.00     0.000 C 
ATOM      5  C   UNL     1     129.145 141.046 119.363  1.00  0.00     0.004 C 
ENDBRANCH   3   4
BRANCH   3   6
ATOM      6  C   UNL     1     128.946 142.800 122.127  1.00  0.00    -0.014 C 
ATOM      7  C   UNL     1     127.537 143.268 122.529  1.00  0.00     0.007 C 
ATOM      8  C   UNL     1     129.975 143.216 123.188  1.00  0.00     0.007 C 
ENDBRANCH   3   6
ENDBRANCH   2   3
ENDBRANCH   1   2
BRANCH   1   9
ATOM      9  C   UNL     1     128.062 145.653 119.619  1.00  0.00    -0.011 C 
ATOM     10  C   UNL     1     126.921 146.386 120.368  1.00  0.00     0.008 C 
BRANCH   9  11
ATOM     11  C   UNL     1     128.192 146.191 118.142  1.00  0.00    -0.002 C 
ATOM     12  C   UNL     1     126.878 146.793 117.561  1.00  0.00     0.005 C 
ATOM     13  C   UNL     1     128.660 145.195 117.023  1.00  0.00    -0.026 C 
ATOM     14  C   UNL     1     126.906 146.570 116.039  1.00  0.00     0.005 C 
ATOM     15  C   UNL     1     128.302 146.025 115.776  1.00  0.00    -0.001 C 
ATOM     16  C   UNL     1     130.200 144.892 116.993  1.00  0.00     0.007 C 
ATOM     17  C   UNL     1     127.830 143.875 117.129  1.00  0.00     0.012 C 
ATOM     18  C   UNL     1     128.661 145.411 114.387  1.00  0.00     0.000 C 
ATOM     19  C   UNL     1     130.837 144.825 115.574  1.00  0.00     0.005 C 
ATOM     20  C   UNL     1     129.826 144.393 114.481  1.00  0.00     0.003 C 
ATOM     21  C   UNL     1     127.529 144.755 113.591  1.00  0.00     0.031 C 
ATOM     22  C   UNL     1     130.432 144.096 113.051  1.00  0.00    -0.008 C 
ATOM     23  C   UNL     1     128.039 144.408 112.210  1.00  0.00    -0.027 C 
ATOM     24  C   UNL     1     129.344 144.148 111.950  1.00  0.00    -0.065 C 
ATOM     25  C   UNL     1     131.549 145.130 112.693  1.00  0.00     0.014 C 
ATOM     26  C   UNL     1     131.030 142.660 113.059  1.00  0.00     0.016 C 
ATOM     27  C   UNL     1     129.799 144.089 110.502  1.00  0.00     0.063 C 
ATOM     28  C   UNL     1     132.014 145.054 111.229  1.00  0.00     0.033 C 
ATOM     29  C   UNL     1     130.838 145.188 110.241  1.00  0.00     0.118 C 
BRANCH  29  30
ATOM     30  O   UNL     1     130.218 146.442 110.370  1.00  0.00    -0.393 OA
ATOM     31  H   UNL     1     129.520 146.512 109.667  1.00  0.00     0.210 HD
ENDBRANCH  29  30
ENDBRANCH   9  11
ENDBRANCH   1   9
TORSDOF 7
ENDMDL
MODEL 5
REMARK VINA RESULT:    -5.867      1.212      1.972
REMARK INTER + INTRA:          -9.780
REMARK INTER:                  -8.376
REMARK INTRA:                  -1.404
REMARK UNBOUND:                -1.683
REMARK SMILES CC[C@H](CC[C@@H](C)[C@@H]1CC[C@@H]2[C@@H]3CC=C4C[C@@H](O)CC[C@@]4(C)[C@H]3CC[C@]21C)C(C)C
REMARK SMILES IDX 5 1 4 2 3 3 2 4 1 5 28 6 29 7 30 8 6 9 7 10 8 11 9 12 26 13
REMARK SMILES IDX 10 14 11 15 25 16 27 17 12 18 24 19 23 20 13 21 21 22 14 23
REMARK SMILES IDX 15 24 20 25 22 26 16 27 19 28 17 29 18 30
REMARK H PARENT 18 31
REMARK Flexibility Score: inf
ROOT
ATOM      1  C   UNL     1     131.046 143.278 106.899  1.00  0.00     0.004 C 
ENDROOT
BRANCH   1   2
ATOM      2  C   UNL     1     131.725 144.017 105.721  1.00  0.00     0.004 C 
BRANCH   2   3
ATOM      3  C   UNL     1     133.054 144.737 106.090  1.00  0.00    -0.009 C 
BRANCH   3   4
ATOM      4  C   UNL     1     134.135 144.554 104.972  1.00  0.00     0.000 C 
ATOM      5  C   UNL     1     134.718 145.889 104.506  1.00  0.00     0.004 C 
ENDBRANCH   3   4
BRANCH   3   6
ATOM      6  C   UNL     1     132.791 146.233 106.457  1.00  0.00    -0.014 C 
ATOM      7  C   UNL     1     132.907 146.532 107.961  1.00  0.00     0.007 C 
ATOM      8  C   UNL     1     131.449 146.739 105.909  1.00  0.00     0.007 C 
ENDBRANCH   3   6
ENDBRANCH   2   3
ENDBRANCH   1   2
BRANCH   1   9
ATOM      9  C   UNL     1     129.731 143.895 107.472  1.00  0.00    -0.011 C 
ATOM     10  C   UNL     1     128.538 143.582 106.535  1.00  0.00     0.008 C 
BRANCH   9  11
ATOM     11  C   UNL     1     129.454 143.345 108.925  1.00  0.00    -0.002 C 
ATOM     12  C   UNL     1     128.052 142.689 109.106  1.00  0.00     0.005 C 
ATOM     13  C   UNL     1     129.543 144.346 110.131  1.00  0.00    -0.026 C 
ATOM     14  C   UNL     1     127.635 142.897 110.572  1.00  0.00     0.005 C 
ATOM     15  C   UNL     1     128.876 143.490 111.223  1.00  0.00    -0.001 C 
ATOM     16  C   UNL     1     130.998 144.704 110.601  1.00  0.00     0.007 C 
ATOM     17  C   UNL     1     128.729 145.636 109.792  1.00  0.00     0.012 C 
ATOM     18  C   UNL     1     128.799 144.101 112.657  1.00  0.00     0.000 C 
ATOM     19  C   UNL     1     131.199 144.780 112.143  1.00  0.00     0.005 C 
ATOM     20  C   UNL     1     129.902 145.162 112.901  1.00  0.00     0.003 C 
ATOM     21  C   UNL     1     127.462 144.706 113.096  1.00  0.00     0.031 C 
ATOM     22  C   UNL     1     130.062 145.465 114.444  1.00  0.00    -0.008 C 
ATOM     23  C   UNL     1     127.542 145.056 114.565  1.00  0.00    -0.027 C 
ATOM     24  C   UNL     1     128.707 145.361 115.188  1.00  0.00    -0.065 C 
ATOM     25  C   UNL     1     131.068 144.469 115.107  1.00  0.00     0.014 C 
ATOM     26  C   UNL     1     130.582 146.923 114.608  1.00  0.00     0.016 C 
ATOM     27  C   UNL     1     128.727 145.421 116.706  1.00  0.00     0.063 C 
ATOM     28  C   UNL     1     131.093 144.546 116.643  1.00  0.00     0.033 C 
ATOM     29  C   UNL     1     129.689 144.358 117.253  1.00  0.00     0.118 C 
BRANCH  29  30
ATOM     30  O   UNL     1     129.180 143.084 116.952  1.00  0.00    -0.393 OA
ATOM     31  H   UNL     1     128.239 143.048 117.268  1.00  0.00     0.210 HD
ENDBRANCH  29  30
ENDBRANCH   9  11
ENDBRANCH   1   9
TORSDOF 7
ENDMDL
MODEL 6
REMARK VINA RESULT:    -5.857      2.838      8.684
REMARK INTER + INTRA:          -9.766
REMARK INTER:                  -8.225
REMARK INTRA:                  -1.541
REMARK UNBOUND:                -1.683
REMARK SMILES CC[C@H](CC[C@@H](C)[C@@H]1CC[C@@H]2[C@@H]3CC=C4C[C@@H](O)CC[C@@]4(C)[C@H]3CC[C@]21C)C(C)C
REMARK SMILES IDX 5 1 4 2 3 3 2 4 1 5 28 6 29 7 30 8 6 9 7 10 8 11 9 12 26 13
REMARK SMILES IDX 10 14 11 15 25 16 27 17 12 18 24 19 23 20 13 21 21 22 14 23
REMARK SMILES IDX 15 24 20 25 22 26 16 27 19 28 17 29 18 30
REMARK H PARENT 18 31
REMARK Flexibility Score: inf
ROOT
ATOM      1  C   UNL     1     130.484 146.836 114.633  1.00  0.00     0.004 C 
ENDROOT
BRANCH   1   2
ATOM      2  C   UNL     1     130.138 146.592 116.122  1.00  0.00     0.004 C 
BRANCH   2   3
ATOM      3  C   UNL     1     128.618 146.431 116.413  1.00  0.00    -0.009 C 
BRANCH   3   4
ATOM      4  C   UNL     1     128.066 145.077 115.853  1.00  0.00     0.000 C 
ATOM      5  C   UNL     1     127.087 145.285 114.697  1.00  0.00     0.004 C 
ENDBRANCH   3   4
BRANCH   3   6
ATOM      6  C   UNL     1     128.320 146.639 117.933  1.00  0.00    -0.014 C 
ATOM      7  C   UNL     1     129.554 146.469 118.835  1.00  0.00     0.007 C 
ATOM      8  C   UNL     1     127.166 145.755 118.427  1.00  0.00     0.007 C 
ENDBRANCH   3   6
ENDBRANCH   2   3
ENDBRANCH   1   2
BRANCH   1   9
ATOM      9  C   UNL     1     131.263 145.710 113.883  1.00  0.00    -0.011 C 
ATOM     10  C   UNL     1     131.878 144.714 114.898  1.00  0.00     0.008 C 
BRANCH   9  11
ATOM     11  C   UNL     1     130.308 144.957 112.878  1.00  0.00    -0.002 C 
ATOM     12  C   UNL     1     130.194 143.423 113.127  1.00  0.00     0.005 C 
ATOM     13  C   UNL     1     130.617 145.052 111.342  1.00  0.00    -0.026 C 
ATOM     14  C   UNL     1     129.918 142.757 111.768  1.00  0.00     0.005 C 
ATOM     15  C   UNL     1     129.696 143.932 110.826  1.00  0.00    -0.001 C 
ATOM     16  C   UNL     1     130.196 146.398 110.653  1.00  0.00     0.007 C 
ATOM     17  C   UNL     1     132.131 144.748 111.102  1.00  0.00     0.012 C 
ATOM     18  C   UNL     1     129.647 143.706 109.282  1.00  0.00     0.000 C 
ATOM     19  C   UNL     1     129.553 146.251 109.242  1.00  0.00     0.005 C 
ATOM     20  C   UNL     1     130.033 144.983 108.492  1.00  0.00     0.003 C 
ATOM     21  C   UNL     1     130.459 142.539 108.713  1.00  0.00     0.031 C 
ATOM     22  C   UNL     1     129.596 144.862 106.978  1.00  0.00    -0.008 C 
ATOM     23  C   UNL     1     130.120 142.376 107.248  1.00  0.00    -0.027 C 
ATOM     24  C   UNL     1     129.696 143.402 106.471  1.00  0.00    -0.065 C 
ATOM     25  C   UNL     1     128.125 145.355 106.782  1.00  0.00     0.014 C 
ATOM     26  C   UNL     1     130.558 145.730 106.117  1.00  0.00     0.016 C 
ATOM     27  C   UNL     1     129.116 143.087 105.102  1.00  0.00     0.063 C 
ATOM     28  C   UNL     1     127.550 145.045 105.389  1.00  0.00     0.033 C 
ATOM     29  C   UNL     1     127.653 143.546 105.042  1.00  0.00     0.118 C 
BRANCH  29  30
ATOM     30  O   UNL     1     126.895 142.773 105.938  1.00  0.00    -0.393 OA
ATOM     31  H   UNL     1     126.851 143.261 106.802  1.00  0.00     0.210 HD
ENDBRANCH  29  30
ENDBRANCH   9  11
ENDBRANCH   1   9
TORSDOF 7
ENDMDL
MODEL 7
REMARK VINA RESULT:    -5.854      3.887      7.615
REMARK INTER + INTRA:          -9.762
REMARK INTER:                  -7.882
REMARK INTRA:                  -1.880
REMARK UNBOUND:                -1.683
REMARK SMILES CC[C@H](CC[C@@H](C)[C@@H]1CC[C@@H]2[C@@H]3CC=C4C[C@@H](O)CC[C@@]4(C)[C@H]3CC[C@]21C)C(C)C
REMARK SMILES IDX 5 1 4 2 3 3 2 4 1 5 28 6 29 7 30 8 6 9 7 10 8 11 9 12 26 13
REMARK SMILES IDX 10 14 11 15 25 16 27 17 12 18 24 19 23 20 13 21 21 22 14 23
REMARK SMILES IDX 15 24 20 25 22 26 16 27 19 28 17 29 18 30
REMARK H PARENT 18 31
REMARK Flexibility Score: inf
ROOT
ATOM      1  C   UNL     1     127.089 142.634 106.797  1.00  0.00     0.004 C 
ENDROOT
BRANCH   1   2
ATOM      2  C   UNL     1     127.926 141.481 106.192  1.00  0.00     0.004 C 
BRANCH   2   3
ATOM      3  C   UNL     1     127.788 140.122 106.938  1.00  0.00    -0.009 C 
BRANCH   3   4
ATOM      4  C   UNL     1     127.756 138.919 105.936  1.00  0.00     0.000 C 
ATOM      5  C   UNL     1     127.629 137.573 106.651  1.00  0.00     0.004 C 
ENDBRANCH   3   4
BRANCH   3   6
ATOM      6  C   UNL     1     128.886 139.981 108.040  1.00  0.00    -0.014 C 
ATOM      7  C   UNL     1     128.525 140.670 109.367  1.00  0.00     0.007 C 
ATOM      8  C   UNL     1     130.265 140.444 107.550  1.00  0.00     0.007 C 
ENDBRANCH   3   6
ENDBRANCH   2   3
ENDBRANCH   1   2
BRANCH   1   9
ATOM      9  C   UNL     1     127.764 144.038 106.891  1.00  0.00    -0.011 C 
ATOM     10  C   UNL     1     126.883 145.002 107.724  1.00  0.00     0.008 C 
BRANCH   9  11
ATOM     11  C   UNL     1     129.203 143.915 107.526  1.00  0.00    -0.002 C 
ATOM     12  C   UNL     1     129.377 144.674 108.876  1.00  0.00     0.005 C 
ATOM     13  C   UNL     1     130.435 144.395 106.681  1.00  0.00    -0.026 C 
ATOM     14  C   UNL     1     130.850 145.103 108.974  1.00  0.00     0.005 C 
ATOM     15  C   UNL     1     131.509 144.420 107.784  1.00  0.00    -0.001 C 
ATOM     16  C   UNL     1     130.904 143.407 105.554  1.00  0.00     0.007 C 
ATOM     17  C   UNL     1     130.137 145.813 106.094  1.00  0.00     0.012 C 
ATOM     18  C   UNL     1     132.959 144.806 107.356  1.00  0.00     0.000 C 
ATOM     19  C   UNL     1     132.446 143.253 105.404  1.00  0.00     0.005 C 
ATOM     20  C   UNL     1     133.223 144.515 105.857  1.00  0.00     0.003 C 
ATOM     21  C   UNL     1     133.423 146.236 107.644  1.00  0.00     0.031 C 
ATOM     22  C   UNL     1     134.773 144.527 105.545  1.00  0.00    -0.008 C 
ATOM     23  C   UNL     1     134.901 146.342 107.339  1.00  0.00    -0.027 C 
ATOM     24  C   UNL     1     135.523 145.555 106.427  1.00  0.00    -0.065 C 
ATOM     25  C   UNL     1     135.401 143.116 105.786  1.00  0.00     0.014 C 
ATOM     26  C   UNL     1     134.972 144.943 104.058  1.00  0.00     0.016 C 
ATOM     27  C   UNL     1     137.042 145.541 106.394  1.00  0.00     0.063 C 
ATOM     28  C   UNL     1     136.938 143.107 105.736  1.00  0.00     0.033 C 
ATOM     29  C   UNL     1     137.553 144.129 106.713  1.00  0.00     0.118 C 
BRANCH  29  30
ATOM     30  O   UNL     1     137.222 143.813 108.041  1.00  0.00    -0.393 OA
ATOM     31  H   UNL     1     136.554 143.078 108.023  1.00  0.00     0.210 HD
ENDBRANCH  29  30
ENDBRANCH   9  11
ENDBRANCH   1   9
TORSDOF 7
ENDMDL
MODEL 8
REMARK VINA RESULT:    -5.830      1.947      4.306
REMARK INTER + INTRA:          -9.729
REMARK INTER:                  -7.773
REMARK INTRA:                  -1.956
REMARK UNBOUND:                -1.683
REMARK SMILES CC[C@H](CC[C@@H](C)[C@@H]1CC[C@@H]2[C@@H]3CC=C4C[C@@H](O)CC[C@@]4(C)[C@H]3CC[C@]21C)C(C)C
REMARK SMILES IDX 5 1 4 2 3 3 2 4 1 5 28 6 29 7 30 8 6 9 7 10 8 11 9 12 26 13
REMARK SMILES IDX 10 14 11 15 25 16 27 17 12 18 24 19 23 20 13 21 21 22 14 23
REMARK SMILES IDX 15 24 20 25 22 26 16 27 19 28 17 29 18 30
REMARK H PARENT 18 31
REMARK Flexibility Score: inf
ROOT
ATOM      1  C   UNL     1     130.558 145.857 106.207  1.00  0.00     0.004 C 
ENDROOT
BRANCH   1   2
ATOM      2  C   UNL     1     129.086 145.739 105.745  1.00  0.00     0.004 C 
BRANCH   2   3
ATOM      3  C   UNL     1     128.136 145.070 106.781  1.00  0.00    -0.009 C 
BRANCH   3   4
ATOM      4  C   UNL     1     126.978 146.035 107.205  1.00  0.00     0.000 C 
ATOM      5  C   UNL     1     126.931 146.254 108.718  1.00  0.00     0.004 C 
ENDBRANCH   3   4
BRANCH   3   6
ATOM      6  C   UNL     1     127.628 143.688 106.256  1.00  0.00    -0.014 C 
ATOM      7  C   UNL     1     127.771 142.547 107.277  1.00  0.00     0.007 C 
ATOM      8  C   UNL     1     128.276 143.300 104.919  1.00  0.00     0.007 C 
ENDBRANCH   3   6
ENDBRANCH   2   3
ENDBRANCH   1   2
BRANCH   1   9
ATOM      9  C   UNL     1     131.236 144.574 106.783  1.00  0.00    -0.011 C 
ATOM     10  C   UNL     1     132.175 143.943 105.725  1.00  0.00     0.008 C 
BRANCH   9  11
ATOM     11  C   UNL     1     132.036 144.918 108.099  1.00  0.00    -0.002 C 
ATOM     12  C   UNL     1     133.379 144.145 108.254  1.00  0.00     0.005 C 
ATOM     13  C   UNL     1     131.328 144.694 109.482  1.00  0.00    -0.026 C 
ATOM     14  C   UNL     1     133.639 143.974 109.760  1.00  0.00     0.005 C 
ATOM     15  C   UNL     1     132.547 144.809 110.415  1.00  0.00    -0.001 C 
ATOM     16  C   UNL     1     130.285 145.794 109.890  1.00  0.00     0.007 C 
ATOM     17  C   UNL     1     130.681 143.271 109.505  1.00  0.00     0.012 C 
ATOM     18  C   UNL     1     132.283 144.698 111.949  1.00  0.00     0.000 C 
ATOM     19  C   UNL     1     130.317 146.219 111.388  1.00  0.00     0.005 C 
ATOM     20  C   UNL     1     130.830 145.092 112.321  1.00  0.00     0.003 C 
ATOM     21  C   UNL     1     132.592 143.359 112.624  1.00  0.00     0.031 C 
ATOM     22  C   UNL     1     130.700 145.361 113.873  1.00  0.00    -0.008 C 
ATOM     23  C   UNL     1     132.457 143.523 114.121  1.00  0.00    -0.027 C 
ATOM     24  C   UNL     1     131.641 144.443 114.691  1.00  0.00    -0.065 C 
ATOM     25  C   UNL     1     131.042 146.848 114.212  1.00  0.00     0.014 C 
ATOM     26  C   UNL     1     129.238 145.048 114.306  1.00  0.00     0.016 C 
ATOM     27  C   UNL     1     131.784 144.721 116.178  1.00  0.00     0.063 C 
ATOM     28  C   UNL     1     131.171 147.125 115.719  1.00  0.00     0.033 C 
ATOM     29  C   UNL     1     132.190 146.185 116.394  1.00  0.00     0.118 C 
BRANCH  29  30
ATOM     30  O   UNL     1     133.477 146.383 115.868  1.00  0.00    -0.393 OA
ATOM     31  H   UNL     1     133.992 145.543 115.991  1.00  0.00     0.210 HD
ENDBRANCH  29  30
ENDBRANCH   9  11
ENDBRANCH   1   9
TORSDOF 7
ENDMDL
MODEL 9
REMARK VINA RESULT:    -5.760      1.392      2.374
REMARK INTER + INTRA:          -9.631
REMARK INTER:                  -7.245
REMARK INTRA:                  -2.386
REMARK UNBOUND:                -1.683
REMARK SMILES CC[C@H](CC[C@@H](C)[C@@H]1CC[C@@H]2[C@@H]3CC=C4C[C@@H](O)CC[C@@]4(C)[C@H]3CC[C@]21C)C(C)C
REMARK SMILES IDX 5 1 4 2 3 3 2 4 1 5 28 6 29 7 30 8 6 9 7 10 8 11 9 12 26 13
REMARK SMILES IDX 10 14 11 15 25 16 27 17 12 18 24 19 23 20 13 21 21 22 14 23
REMARK SMILES IDX 15 24 20 25 22 26 16 27 19 28 17 29 18 30
REMARK H PARENT 18 31
REMARK Flexibility Score: inf
ROOT
ATOM      1  C   UNL     1     130.498 144.457 105.758  1.00  0.00     0.004 C 
ENDROOT
BRANCH   1   2
ATOM      2  C   UNL     1     130.761 143.002 105.302  1.00  0.00     0.004 C 
BRANCH   2   3
ATOM      3  C   UNL     1     131.887 142.272 106.090  1.00  0.00    -0.009 C 
BRANCH   3   4
ATOM      4  C   UNL     1     132.673 143.260 107.017  1.00  0.00     0.000 C 
ATOM      5  C   UNL     1     134.057 143.598 106.461  1.00  0.00     0.004 C 
ENDBRANCH   3   4
BRANCH   3   6
ATOM      6  C   UNL     1     131.316 141.032 106.851  1.00  0.00    -0.014 C 
ATOM      7  C   UNL     1     129.904 140.624 106.399  1.00  0.00     0.007 C 
ATOM      8  C   UNL     1     131.364 141.212 108.375  1.00  0.00     0.007 C 
ENDBRANCH   3   6
ENDBRANCH   2   3
ENDBRANCH   1   2
BRANCH   1   9
ATOM      9  C   UNL     1     129.162 144.742 106.515  1.00  0.00    -0.011 C 
ATOM     10  C   UNL     1     127.952 144.333 105.639  1.00  0.00     0.008 C 
BRANCH   9  11
ATOM     11  C   UNL     1     129.135 143.972 107.892  1.00  0.00    -0.002 C 
ATOM     12  C   UNL     1     127.817 143.187 108.162  1.00  0.00     0.005 C 
ATOM     13  C   UNL     1     129.343 144.796 109.212  1.00  0.00    -0.026 C 
ATOM     14  C   UNL     1     127.610 143.151 109.686  1.00  0.00     0.005 C 
ATOM     15  C   UNL     1     128.896 143.744 110.243  1.00  0.00    -0.001 C 
ATOM     16  C   UNL     1     130.827 145.200 109.526  1.00  0.00     0.007 C 
ATOM     17  C   UNL     1     128.412 146.052 109.186  1.00  0.00     0.012 C 
ATOM     18  C   UNL     1     128.995 144.138 111.749  1.00  0.00     0.000 C 
ATOM     19  C   UNL     1     131.249 145.073 111.019  1.00  0.00     0.005 C 
ATOM     20  C   UNL     1     130.058 145.239 111.997  1.00  0.00     0.003 C 
ATOM     21  C   UNL     1     127.705 144.566 112.454  1.00  0.00     0.031 C 
ATOM     22  C   UNL     1     130.425 145.333 113.532  1.00  0.00    -0.008 C 
ATOM     23  C   UNL     1     127.980 144.711 113.934  1.00  0.00    -0.027 C 
ATOM     24  C   UNL     1     129.204 145.017 114.430  1.00  0.00    -0.065 C 
ATOM     25  C   UNL     1     131.576 144.337 113.892  1.00  0.00     0.014 C 
ATOM     26  C   UNL     1     130.877 146.790 113.841  1.00  0.00     0.016 C 
ATOM     27  C   UNL     1     129.444 144.863 115.922  1.00  0.00     0.063 C 
ATOM     28  C   UNL     1     131.822 144.198 115.403  1.00  0.00     0.033 C 
ATOM     29  C   UNL     1     130.538 143.814 116.165  1.00  0.00     0.118 C 
BRANCH  29  30
ATOM     30  O   UNL     1     130.066 142.558 115.747  1.00  0.00    -0.393 OA
ATOM     31  H   UNL     1     130.114 142.527 114.756  1.00  0.00     0.210 HD
ENDBRANCH  29  30
ENDBRANCH   9  11
ENDBRANCH   1   9
TORSDOF 7
ENDMDL
