MODEL 1
REMARK VINA RESULT:    -2.870      0.000      0.000
REMARK INTER + INTRA:          -7.773
REMARK INTER:                  -6.226
REMARK INTRA:                  -1.547
REMARK UNBOUND:                -1.547
REMARK SMILES CCCCCCCCCCCCCCCCCCCCCC(=O)[O-]
REMARK SMILES IDX 12 1 11 2 10 3 9 4 8 5 7 6 6 7 5 8 4 9 3 10 2 11 1 12 13 13
REMARK SMILES IDX 14 14 15 15 16 16 17 17 18 18 19 19 20 20 21 21 22 22 23 23
REMARK SMILES IDX 24 24
REMARK H PARENT
REMARK Flexibility Score: inf
ROOT
ATOM      1  C   UNL     1      16.834  -6.371   7.652  1.00  0.00     0.000 C 
ENDROOT
BRANCH   1   2
ATOM      2  C   UNL     1      18.241  -6.604   8.240  1.00  0.00     0.000 C 
BRANCH   2   3
ATOM      3  C   UNL     1      19.247  -7.262   7.279  1.00  0.00     0.000 C 
BRANCH   3   4
ATOM      4  C   UNL     1      19.784  -8.601   7.803  1.00  0.00    -0.000 C 
BRANCH   4   5
ATOM      5  C   UNL     1      19.216  -9.775   6.991  1.00  0.00    -0.000 C 
BRANCH   5   6
ATOM      6  C   UNL     1      19.709  -9.773   5.529  1.00  0.00    -0.000 C 
BRANCH   6   7
ATOM      7  C   UNL     1      18.880  -8.873   4.593  1.00  0.00    -0.000 C 
BRANCH   7   8
ATOM      8  C   UNL     1      19.677  -7.769   3.875  1.00  0.00    -0.000 C 
BRANCH   8   9
ATOM      9  C   UNL     1      21.183  -7.738   4.203  1.00  0.00    -0.000 C 
BRANCH   9  10
ATOM     10  C   UNL     1      21.825  -6.344   4.038  1.00  0.00    -0.000 C 
BRANCH  10  11
ATOM     11  C   UNL     1      20.981  -5.230   4.675  1.00  0.00    -0.003 C 
ATOM     12  C   UNL     1      21.216  -3.894   3.976  1.00  0.00     0.004 C 
ENDBRANCH  10  11
ENDBRANCH   9  10
ENDBRANCH   8   9
ENDBRANCH   7   8
ENDBRANCH   6   7
ENDBRANCH   5   6
ENDBRANCH   4   5
ENDBRANCH   3   4
ENDBRANCH   2   3
ENDBRANCH   1   2
BRANCH   1  13
ATOM     13  C   UNL     1      16.249  -7.557   6.857  1.00  0.00     0.000 C 
BRANCH  13  14
ATOM     14  C   UNL     1      15.224  -7.172   5.775  1.00  0.00     0.000 C 
BRANCH  14  15
ATOM     15  C   UNL     1      14.567  -8.393   5.114  1.00  0.00     0.000 C 
BRANCH  15  16
ATOM     16  C   UNL     1      13.261  -7.995   4.410  1.00  0.00     0.000 C 
BRANCH  16  17
ATOM     17  C   UNL     1      12.472  -9.205   3.875  1.00  0.00     0.000 C 
BRANCH  17  18
ATOM     18  C   UNL     1      10.985  -9.242   4.274  1.00  0.00     0.000 C 
BRANCH  18  19
ATOM     19  C   UNL     1      10.455  -7.884   4.759  1.00  0.00     0.000 C 
BRANCH  19  20
ATOM     20  C   UNL     1       9.594  -8.050   6.018  1.00  0.00     0.006 C 
BRANCH  20  21
ATOM     21  C   UNL     1       8.286  -8.780   5.696  1.00  0.00     0.053 C 
BRANCH  21  22
ATOM     22  C   UNL     1       7.741  -9.441   6.923  1.00  0.00     0.041 C 
ATOM     23  O   UNL     1       6.527  -9.770   6.980  1.00  0.00    -0.550 OA
ATOM     24  O   UNL     1       8.585  -9.735   7.988  1.00  0.00    -0.550 OA
ENDBRANCH  21  22
ENDBRANCH  20  21
ENDBRANCH  19  20
ENDBRANCH  18  19
ENDBRANCH  17  18
ENDBRANCH  16  17
ENDBRANCH  15  16
ENDBRANCH  14  15
ENDBRANCH  13  14
ENDBRANCH   1  13
TORSDOF 20
ENDMDL
MODEL 2
REMARK VINA RESULT:    -2.770      4.248      9.411
REMARK INTER + INTRA:          -7.557
REMARK INTER:                  -5.577
REMARK INTRA:                  -1.980
REMARK UNBOUND:                -1.547
REMARK SMILES CCCCCCCCCCCCCCCCCCCCCC(=O)[O-]
REMARK SMILES IDX 12 1 11 2 10 3 9 4 8 5 7 6 6 7 5 8 4 9 3 10 2 11 1 12 13 13
REMARK SMILES IDX 14 14 15 15 16 16 17 17 18 18 19 19 20 20 21 21 22 22 23 23
REMARK SMILES IDX 24 24
REMARK H PARENT
REMARK Flexibility Score: inf
ROOT
ATOM      1  C   UNL     1      16.880  -6.506   7.873  1.00  0.00     0.000 C 
ENDROOT
BRANCH   1   2
ATOM      2  C   UNL     1      15.869  -6.698   6.724  1.00  0.00     0.000 C 
BRANCH   2   3
ATOM      3  C   UNL     1      15.913  -8.077   6.042  1.00  0.00     0.000 C 
BRANCH   3   4
ATOM      4  C   UNL     1      16.057  -7.984   4.516  1.00  0.00    -0.000 C 
BRANCH   4   5
ATOM      5  C   UNL     1      14.766  -7.455   3.875  1.00  0.00    -0.000 C 
BRANCH   5   6
ATOM      6  C   UNL     1      13.534  -8.312   4.235  1.00  0.00    -0.000 C 
BRANCH   6   7
ATOM      7  C   UNL     1      12.275  -7.488   4.564  1.00  0.00    -0.000 C 
BRANCH   7   8
ATOM      8  C   UNL     1      11.866  -7.486   6.048  1.00  0.00    -0.000 C 
BRANCH   8   9
ATOM      9  C   UNL     1      10.366  -7.243   6.307  1.00  0.00    -0.000 C 
BRANCH   9  10
ATOM     10  C   UNL     1       9.437  -8.169   5.494  1.00  0.00    -0.000 C 
BRANCH  10  11
ATOM     11  C   UNL     1       8.707  -9.191   6.379  1.00  0.00    -0.003 C 
ATOM     12  C   UNL     1       7.244  -8.803   6.574  1.00  0.00     0.004 C 
ENDBRANCH  10  11
ENDBRANCH   9  10
ENDBRANCH   8   9
ENDBRANCH   7   8
ENDBRANCH   6   7
ENDBRANCH   5   6
ENDBRANCH   4   5
ENDBRANCH   3   4
ENDBRANCH   2   3
ENDBRANCH   1   2
BRANCH   1  13
ATOM     13  C   UNL     1      18.362  -6.470   7.447  1.00  0.00     0.000 C 
BRANCH  13  14
ATOM     14  C   UNL     1      19.341  -7.112   8.445  1.00  0.00     0.000 C 
BRANCH  14  15
ATOM     15  C   UNL     1      19.605  -8.597   8.153  1.00  0.00     0.000 C 
BRANCH  15  16
ATOM     16  C   UNL     1      20.159  -8.784   6.733  1.00  0.00     0.000 C 
BRANCH  16  17
ATOM     17  C   UNL     1      19.323  -9.759   5.883  1.00  0.00     0.000 C 
BRANCH  17  18
ATOM     18  C   UNL     1      19.297  -9.454   4.374  1.00  0.00     0.000 C 
BRANCH  18  19
ATOM     19  C   UNL     1      20.060  -8.172   4.004  1.00  0.00     0.000 C 
BRANCH  19  20
ATOM     20  C   UNL     1      19.141  -6.946   4.085  1.00  0.00     0.006 C 
BRANCH  20  21
ATOM     21  C   UNL     1      19.933  -5.651   3.881  1.00  0.00     0.053 C 
BRANCH  21  22
ATOM     22  C   UNL     1      21.057  -5.565   4.866  1.00  0.00     0.041 C 
ATOM     23  O   UNL     1      20.875  -5.030   5.990  1.00  0.00    -0.550 OA
ATOM     24  O   UNL     1      22.295  -6.117   4.557  1.00  0.00    -0.550 OA
ENDBRANCH  21  22
ENDBRANCH  20  21
ENDBRANCH  19  20
ENDBRANCH  18  19
ENDBRANCH  17  18
ENDBRANCH  16  17
ENDBRANCH  15  16
ENDBRANCH  14  15
ENDBRANCH  13  14
ENDBRANCH   1  13
TORSDOF 20
ENDMDL
MODEL 3
REMARK VINA RESULT:    -2.720      2.428      5.680
REMARK INTER + INTRA:          -7.448
REMARK INTER:                  -6.249
REMARK INTRA:                  -1.199
REMARK UNBOUND:                -1.547
REMARK SMILES CCCCCCCCCCCCCCCCCCCCCC(=O)[O-]
REMARK SMILES IDX 12 1 11 2 10 3 9 4 8 5 7 6 6 7 5 8 4 9 3 10 2 11 1 12 13 13
REMARK SMILES IDX 14 14 15 15 16 16 17 17 18 18 19 19 20 20 21 21 22 22 23 23
REMARK SMILES IDX 24 24
REMARK H PARENT
REMARK Flexibility Score: inf
ROOT
ATOM      1  C   UNL     1      10.504  -7.148   4.768  1.00  0.00     0.000 C 
ENDROOT
BRANCH   1   2
ATOM      2  C   UNL     1      11.962  -7.185   4.265  1.00  0.00     0.000 C 
BRANCH   2   3
ATOM      3  C   UNL     1      12.705  -8.509   4.518  1.00  0.00     0.000 C 
BRANCH   3   4
ATOM      4  C   UNL     1      14.231  -8.348   4.513  1.00  0.00    -0.000 C 
BRANCH   4   5
ATOM      5  C   UNL     1      14.628  -6.884   4.279  1.00  0.00    -0.000 C 
BRANCH   5   6
ATOM      6  C   UNL     1      15.906  -6.489   5.049  1.00  0.00    -0.000 C 
BRANCH   6   7
ATOM      7  C   UNL     1      17.089  -7.452   4.829  1.00  0.00    -0.000 C 
BRANCH   7   8
ATOM      8  C   UNL     1      18.435  -6.772   4.520  1.00  0.00    -0.000 C 
BRANCH   8   9
ATOM      9  C   UNL     1      19.440  -6.761   5.689  1.00  0.00    -0.000 C 
BRANCH   9  10
ATOM     10  C   UNL     1      18.901  -7.417   6.978  1.00  0.00    -0.000 C 
BRANCH  10  11
ATOM     11  C   UNL     1      19.755  -8.611   7.430  1.00  0.00    -0.003 C 
ATOM     12  C   UNL     1      19.148  -9.930   6.961  1.00  0.00     0.004 C 
ENDBRANCH  10  11
ENDBRANCH   9  10
ENDBRANCH   8   9
ENDBRANCH   7   8
ENDBRANCH   6   7
ENDBRANCH   5   6
ENDBRANCH   4   5
ENDBRANCH   3   4
ENDBRANCH   2   3
ENDBRANCH   1   2
BRANCH   1  13
ATOM     13  C   UNL     1      10.029  -8.419   5.500  1.00  0.00     0.000 C 
BRANCH  13  14
ATOM     14  C   UNL     1       8.763  -8.241   6.356  1.00  0.00     0.000 C 
BRANCH  14  15
ATOM     15  C   UNL     1       8.544  -9.395   7.346  1.00  0.00     0.000 C 
BRANCH  15  16
ATOM     16  C   UNL     1       7.075  -9.842   7.347  1.00  0.00     0.000 C 
BRANCH  16  17
ATOM     17  C   UNL     1       6.528 -10.120   5.934  1.00  0.00     0.000 C 
BRANCH  17  18
ATOM     18  C   UNL     1       5.057  -9.723   5.713  1.00  0.00     0.000 C 
BRANCH  18  19
ATOM     19  C   UNL     1       4.834  -8.934   4.413  1.00  0.00     0.000 C 
BRANCH  19  20
ATOM     20  C   UNL     1       3.698  -7.916   4.579  1.00  0.00     0.006 C 
BRANCH  20  21
ATOM     21  C   UNL     1       4.207  -6.487   4.370  1.00  0.00     0.053 C 
BRANCH  21  22
ATOM     22  C   UNL     1       5.609  -6.351   4.877  1.00  0.00     0.041 C 
ATOM     23  O   UNL     1       5.825  -6.183   6.105  1.00  0.00    -0.550 OA
ATOM     24  O   UNL     1       6.679  -6.456   3.997  1.00  0.00    -0.550 OA
ENDBRANCH  21  22
ENDBRANCH  20  21
ENDBRANCH  19  20
ENDBRANCH  18  19
ENDBRANCH  17  18
ENDBRANCH  16  17
ENDBRANCH  15  16
ENDBRANCH  14  15
ENDBRANCH  13  14
ENDBRANCH   1  13
TORSDOF 20
ENDMDL
MODEL 4
REMARK VINA RESULT:    -2.605      2.386      4.069
REMARK INTER + INTRA:          -7.198
REMARK INTER:                  -5.522
REMARK INTRA:                  -1.676
REMARK UNBOUND:                -1.547
REMARK SMILES CCCCCCCCCCCCCCCCCCCCCC(=O)[O-]
REMARK SMILES IDX 12 1 11 2 10 3 9 4 8 5 7 6 6 7 5 8 4 9 3 10 2 11 1 12 13 13
REMARK SMILES IDX 14 14 15 15 16 16 17 17 18 18 19 19 20 20 21 21 22 22 23 23
REMARK SMILES IDX 24 24
REMARK H PARENT
REMARK Flexibility Score: inf
ROOT
ATOM      1  C   UNL     1      14.863  -7.190   5.333  1.00  0.00     0.000 C 
ENDROOT
BRANCH   1   2
ATOM      2  C   UNL     1      16.031  -7.801   4.533  1.00  0.00     0.000 C 
BRANCH   2   3
ATOM      3  C   UNL     1      15.945  -9.322   4.313  1.00  0.00     0.000 C 
BRANCH   3   4
ATOM      4  C   UNL     1      16.098 -10.124   5.614  1.00  0.00    -0.000 C 
BRANCH   4   5
ATOM      5  C   UNL     1      17.559 -10.124   6.089  1.00  0.00    -0.000 C 
BRANCH   5   6
ATOM      6  C   UNL     1      18.560 -10.112   4.914  1.00  0.00    -0.000 C 
BRANCH   6   7
ATOM      7  C   UNL     1      19.760  -9.169   5.129  1.00  0.00    -0.000 C 
BRANCH   7   8
ATOM      8  C   UNL     1      19.547  -7.722   4.650  1.00  0.00    -0.000 C 
BRANCH   8   9
ATOM      9  C   UNL     1      19.564  -6.660   5.767  1.00  0.00    -0.000 C 
BRANCH   9  10
ATOM     10  C   UNL     1      18.610  -6.974   6.938  1.00  0.00    -0.000 C 
BRANCH  10  11
ATOM     11  C   UNL     1      19.317  -6.920   8.301  1.00  0.00    -0.003 C 
ATOM     12  C   UNL     1      19.710  -8.317   8.773  1.00  0.00     0.004 C 
ENDBRANCH  10  11
ENDBRANCH   9  10
ENDBRANCH   8   9
ENDBRANCH   7   8
ENDBRANCH   6   7
ENDBRANCH   5   6
ENDBRANCH   4   5
ENDBRANCH   3   4
ENDBRANCH   2   3
ENDBRANCH   1   2
BRANCH   1  13
ATOM     13  C   UNL     1      13.520  -7.110   4.578  1.00  0.00     0.000 C 
BRANCH  13  14
ATOM     14  C   UNL     1      12.273  -7.384   5.438  1.00  0.00     0.000 C 
BRANCH  14  15
ATOM     15  C   UNL     1      11.090  -7.924   4.620  1.00  0.00     0.000 C 
BRANCH  15  16
ATOM     16  C   UNL     1       9.885  -8.211   5.527  1.00  0.00     0.000 C 
BRANCH  16  17
ATOM     17  C   UNL     1       9.117  -9.484   5.124  1.00  0.00     0.000 C 
BRANCH  17  18
ATOM     18  C   UNL     1       7.822  -9.241   4.327  1.00  0.00     0.000 C 
BRANCH  18  19
ATOM     19  C   UNL     1       6.568  -9.190   5.213  1.00  0.00     0.000 C 
BRANCH  19  20
ATOM     20  C   UNL     1       5.380  -8.593   4.448  1.00  0.00     0.006 C 
BRANCH  20  21
ATOM     21  C   UNL     1       5.596  -7.100   4.177  1.00  0.00     0.053 C 
BRANCH  21  22
ATOM     22  C   UNL     1       4.374  -6.320   4.545  1.00  0.00     0.041 C 
ATOM     23  O   UNL     1       4.450  -5.080   4.747  1.00  0.00    -0.550 OA
ATOM     24  O   UNL     1       3.140  -6.955   4.622  1.00  0.00    -0.550 OA
ENDBRANCH  21  22
ENDBRANCH  20  21
ENDBRANCH  19  20
ENDBRANCH  18  19
ENDBRANCH  17  18
ENDBRANCH  16  17
ENDBRANCH  15  16
ENDBRANCH  14  15
ENDBRANCH  13  14
ENDBRANCH   1  13
TORSDOF 20
ENDMDL
MODEL 5
REMARK VINA RESULT:    -2.526      1.826      3.089
REMARK INTER + INTRA:          -7.027
REMARK INTER:                  -5.077
REMARK INTRA:                  -1.950
REMARK UNBOUND:                -1.547
REMARK SMILES CCCCCCCCCCCCCCCCCCCCCC(=O)[O-]
REMARK SMILES IDX 12 1 11 2 10 3 9 4 8 5 7 6 6 7 5 8 4 9 3 10 2 11 1 12 13 13
REMARK SMILES IDX 14 14 15 15 16 16 17 17 18 18 19 19 20 20 21 21 22 22 23 23
REMARK SMILES IDX 24 24
REMARK H PARENT
REMARK Flexibility Score: inf
ROOT
ATOM      1  C   UNL     1      15.397  -7.590   6.132  1.00  0.00     0.000 C 
ENDROOT
BRANCH   1   2
ATOM      2  C   UNL     1      14.988  -9.035   6.484  1.00  0.00     0.000 C 
BRANCH   2   3
ATOM      3  C   UNL     1      15.492 -10.111   5.506  1.00  0.00     0.000 C 
BRANCH   3   4
ATOM      4  C   UNL     1      16.968  -9.927   5.124  1.00  0.00    -0.000 C 
BRANCH   4   5
ATOM      5  C   UNL     1      17.879 -10.125   6.345  1.00  0.00    -0.000 C 
BRANCH   5   6
ATOM      6  C   UNL     1      19.361  -9.837   6.026  1.00  0.00    -0.000 C 
BRANCH   6   7
ATOM      7  C   UNL     1      19.972  -8.705   6.873  1.00  0.00    -0.000 C 
BRANCH   7   8
ATOM      8  C   UNL     1      18.980  -7.615   7.318  1.00  0.00    -0.000 C 
BRANCH   8   9
ATOM      9  C   UNL     1      18.907  -6.386   6.391  1.00  0.00    -0.000 C 
BRANCH   9  10
ATOM     10  C   UNL     1      18.901  -6.739   4.889  1.00  0.00    -0.000 C 
BRANCH  10  11
ATOM     11  C   UNL     1      19.776  -5.788   4.059  1.00  0.00    -0.003 C 
ATOM     12  C   UNL     1      21.036  -5.393   4.823  1.00  0.00     0.004 C 
ENDBRANCH  10  11
ENDBRANCH   9  10
ENDBRANCH   8   9
ENDBRANCH   7   8
ENDBRANCH   6   7
ENDBRANCH   5   6
ENDBRANCH   4   5
ENDBRANCH   3   4
ENDBRANCH   2   3
ENDBRANCH   1   2
BRANCH   1  13
ATOM     13  C   UNL     1      14.335  -6.774   5.367  1.00  0.00     0.000 C 
BRANCH  13  14
ATOM     14  C   UNL     1      13.859  -7.404   4.045  1.00  0.00     0.000 C 
BRANCH  14  15
ATOM     15  C   UNL     1      12.356  -7.718   4.040  1.00  0.00     0.000 C 
BRANCH  15  16
ATOM     16  C   UNL     1      11.705  -7.292   5.364  1.00  0.00     0.000 C 
BRANCH  16  17
ATOM     17  C   UNL     1      10.173  -7.457   5.364  1.00  0.00     0.000 C 
BRANCH  17  18
ATOM     18  C   UNL     1       9.615  -8.384   6.460  1.00  0.00     0.000 C 
BRANCH  18  19
ATOM     19  C   UNL     1       8.152  -8.786   6.222  1.00  0.00     0.000 C 
BRANCH  19  20
ATOM     20  C   UNL     1       7.644  -8.238   4.883  1.00  0.00     0.006 C 
BRANCH  20  21
ATOM     21  C   UNL     1       6.368  -8.962   4.441  1.00  0.00     0.053 C 
BRANCH  21  22
ATOM     22  C   UNL     1       5.156  -8.216   4.904  1.00  0.00     0.041 C 
ATOM     23  O   UNL     1       5.153  -6.957   4.915  1.00  0.00    -0.550 OA
ATOM     24  O   UNL     1       4.014  -8.912   5.283  1.00  0.00    -0.550 OA
ENDBRANCH  21  22
ENDBRANCH  20  21
ENDBRANCH  19  20
ENDBRANCH  18  19
ENDBRANCH  17  18
ENDBRANCH  16  17
ENDBRANCH  15  16
ENDBRANCH  14  15
ENDBRANCH  13  14
ENDBRANCH   1  13
TORSDOF 20
ENDMDL
MODEL 6
REMARK VINA RESULT:    -2.438      4.464     11.198
REMARK INTER + INTRA:          -6.835
REMARK INTER:                  -5.154
REMARK INTRA:                  -1.681
REMARK UNBOUND:                -1.547
REMARK SMILES CCCCCCCCCCCCCCCCCCCCCC(=O)[O-]
REMARK SMILES IDX 12 1 11 2 10 3 9 4 8 5 7 6 6 7 5 8 4 9 3 10 2 11 1 12 13 13
REMARK SMILES IDX 14 14 15 15 16 16 17 17 18 18 19 19 20 20 21 21 22 22 23 23
REMARK SMILES IDX 24 24
REMARK H PARENT
REMARK Flexibility Score: inf
ROOT
ATOM      1  C   UNL     1      11.692  -7.055   4.499  1.00  0.00     0.000 C 
ENDROOT
BRANCH   1   2
ATOM      2  C   UNL     1      10.678  -8.159   4.133  1.00  0.00     0.000 C 
BRANCH   2   3
ATOM      3  C   UNL     1       9.230  -7.674   3.940  1.00  0.00     0.000 C 
BRANCH   3   4
ATOM      4  C   UNL     1       8.457  -7.562   5.262  1.00  0.00    -0.000 C 
BRANCH   4   5
ATOM      5  C   UNL     1       8.835  -8.703   6.217  1.00  0.00    -0.000 C 
BRANCH   5   6
ATOM      6  C   UNL     1       8.073 -10.009   5.905  1.00  0.00    -0.000 C 
BRANCH   6   7
ATOM      7  C   UNL     1       6.750  -9.793   5.147  1.00  0.00    -0.000 C 
BRANCH   7   8
ATOM      8  C   UNL     1       5.478  -9.918   6.005  1.00  0.00    -0.000 C 
BRANCH   8   9
ATOM      9  C   UNL     1       4.203  -9.335   5.365  1.00  0.00    -0.000 C 
BRANCH   9  10
ATOM     10  C   UNL     1       4.476  -8.456   4.126  1.00  0.00    -0.000 C 
BRANCH  10  11
ATOM     11  C   UNL     1       4.003  -7.007   4.320  1.00  0.00    -0.003 C 
ATOM     12  C   UNL     1       5.175  -6.084   4.638  1.00  0.00     0.004 C 
ENDBRANCH  10  11
ENDBRANCH   9  10
ENDBRANCH   8   9
ENDBRANCH   7   8
ENDBRANCH   6   7
ENDBRANCH   5   6
ENDBRANCH   4   5
ENDBRANCH   3   4
ENDBRANCH   2   3
ENDBRANCH   1   2
BRANCH   1  13
ATOM     13  C   UNL     1      13.112  -7.253   3.930  1.00  0.00     0.000 C 
BRANCH  13  14
ATOM     14  C   UNL     1      14.250  -7.091   4.954  1.00  0.00     0.000 C 
BRANCH  14  15
ATOM     15  C   UNL     1      14.316  -8.248   5.962  1.00  0.00     0.000 C 
BRANCH  15  16
ATOM     16  C   UNL     1      14.563  -9.584   5.246  1.00  0.00     0.000 C 
BRANCH  16  17
ATOM     17  C   UNL     1      15.990 -10.125   5.455  1.00  0.00     0.000 C 
BRANCH  17  18
ATOM     18  C   UNL     1      16.942  -9.938   4.259  1.00  0.00     0.000 C 
BRANCH  18  19
ATOM     19  C   UNL     1      17.297  -8.467   3.995  1.00  0.00     0.000 C 
BRANCH  19  20
ATOM     20  C   UNL     1      18.364  -7.976   4.982  1.00  0.00     0.006 C 
BRANCH  20  21
ATOM     21  C   UNL     1      18.949  -6.632   4.535  1.00  0.00     0.053 C 
BRANCH  21  22
ATOM     22  C   UNL     1      20.346  -6.473   5.048  1.00  0.00     0.041 C 
ATOM     23  O   UNL     1      21.037  -7.487   5.330  1.00  0.00    -0.550 OA
ATOM     24  O   UNL     1      20.900  -5.204   5.174  1.00  0.00    -0.550 OA
ENDBRANCH  21  22
ENDBRANCH  20  21
ENDBRANCH  19  20
ENDBRANCH  18  19
ENDBRANCH  17  18
ENDBRANCH  16  17
ENDBRANCH  15  16
ENDBRANCH  14  15
ENDBRANCH  13  14
ENDBRANCH   1  13
TORSDOF 20
ENDMDL
MODEL 7
REMARK VINA RESULT:    -2.367      4.527     11.067
REMARK INTER + INTRA:          -6.682
REMARK INTER:                  -5.733
REMARK INTRA:                  -0.949
REMARK UNBOUND:                -1.547
REMARK SMILES CCCCCCCCCCCCCCCCCCCCCC(=O)[O-]
REMARK SMILES IDX 12 1 11 2 10 3 9 4 8 5 7 6 6 7 5 8 4 9 3 10 2 11 1 12 13 13
REMARK SMILES IDX 14 14 15 15 16 16 17 17 18 18 19 19 20 20 21 21 22 22 23 23
REMARK SMILES IDX 24 24
REMARK H PARENT
REMARK Flexibility Score: inf
ROOT
ATOM      1  C   UNL     1      13.610  -7.128   5.287  1.00  0.00     0.000 C 
ENDROOT
BRANCH   1   2
ATOM      2  C   UNL     1      12.675  -7.585   4.148  1.00  0.00     0.000 C 
BRANCH   2   3
ATOM      3  C   UNL     1      11.601  -8.608   4.558  1.00  0.00     0.000 C 
BRANCH   3   4
ATOM      4  C   UNL     1      10.246  -8.354   3.883  1.00  0.00    -0.000 C 
BRANCH   4   5
ATOM      5  C   UNL     1       9.271  -7.669   4.852  1.00  0.00    -0.000 C 
BRANCH   5   6
ATOM      6  C   UNL     1       8.407  -6.594   4.157  1.00  0.00    -0.000 C 
BRANCH   6   7
ATOM      7  C   UNL     1       6.901  -6.921   4.141  1.00  0.00    -0.000 C 
BRANCH   7   8
ATOM      8  C   UNL     1       6.535  -8.337   4.618  1.00  0.00    -0.000 C 
BRANCH   8   9
ATOM      9  C   UNL     1       6.182  -8.447   6.115  1.00  0.00    -0.000 C 
BRANCH   9  10
ATOM     10  C   UNL     1       6.103  -9.900   6.630  1.00  0.00    -0.000 C 
BRANCH  10  11
ATOM     11  C   UNL     1       6.956 -10.122   7.888  1.00  0.00    -0.003 C 
ATOM     12  C   UNL     1       8.313  -9.435   7.761  1.00  0.00     0.004 C 
ENDBRANCH  10  11
ENDBRANCH   9  10
ENDBRANCH   8   9
ENDBRANCH   7   8
ENDBRANCH   6   7
ENDBRANCH   5   6
ENDBRANCH   4   5
ENDBRANCH   3   4
ENDBRANCH   2   3
ENDBRANCH   1   2
BRANCH   1  13
ATOM     13  C   UNL     1      15.112  -7.385   5.048  1.00  0.00     0.000 C 
BRANCH  13  14
ATOM     14  C   UNL     1      15.564  -8.841   5.259  1.00  0.00     0.000 C 
BRANCH  14  15
ATOM     15  C   UNL     1      16.502  -9.343   4.151  1.00  0.00     0.000 C 
BRANCH  15  16
ATOM     16  C   UNL     1      17.727  -8.426   4.018  1.00  0.00     0.000 C 
BRANCH  16  17
ATOM     17  C   UNL     1      19.053  -9.142   4.339  1.00  0.00     0.000 C 
BRANCH  17  18
ATOM     18  C   UNL     1      19.632  -8.849   5.735  1.00  0.00     0.000 C 
BRANCH  18  19
ATOM     19  C   UNL     1      19.072  -7.563   6.363  1.00  0.00     0.000 C 
BRANCH  19  20
ATOM     20  C   UNL     1      19.975  -6.363   6.050  1.00  0.00     0.006 C 
BRANCH  20  21
ATOM     21  C   UNL     1      20.574  -6.478   4.644  1.00  0.00     0.053 C 
BRANCH  21  22
ATOM     22  C   UNL     1      21.455  -5.303   4.353  1.00  0.00     0.041 C 
ATOM     23  O   UNL     1      20.952  -4.164   4.172  1.00  0.00    -0.550 OA
ATOM     24  O   UNL     1      22.835  -5.460   4.326  1.00  0.00    -0.550 OA
ENDBRANCH  21  22
ENDBRANCH  20  21
ENDBRANCH  19  20
ENDBRANCH  18  19
ENDBRANCH  17  18
ENDBRANCH  16  17
ENDBRANCH  15  16
ENDBRANCH  14  15
ENDBRANCH  13  14
ENDBRANCH   1  13
TORSDOF 20
ENDMDL
