MODEL 1
REMARK VINA RESULT:    -5.781      0.000      0.000
REMARK INTER + INTRA:          -7.262
REMARK INTER:                  -6.964
REMARK INTRA:                  -0.298
REMARK UNBOUND:                -0.298
REMARK SMILES O=c1c(O)c(-c2ccc(O)c(O)c2)oc2cc(O)cc(O)c12
REMARK SMILES IDX 5 1 3 2 2 3 1 4 22 5 20 6 19 7 17 8 16 9 15 10 14 11 6 12
REMARK SMILES IDX 7 13 8 14 9 15 13 16 11 17 10 18 12 20 4 22 21 24 18 26
REMARK H PARENT 10 19 12 21 4 23 21 25 18 27
REMARK Flexibility Score: inf
ROOT
ATOM      1  C   UNL     1      25.043  39.971  32.044  1.00  0.00     0.180 A 
ATOM      2  C   UNL     1      24.897  39.895  33.443  1.00  0.00     0.208 A 
ATOM      3  C   UNL     1      25.290  38.721  34.103  1.00  0.00     0.238 A 
ATOM      4  O   UNL     1      25.154  38.636  35.354  1.00  0.00    -0.285 OA
ATOM      5  C   UNL     1      25.838  37.654  33.361  1.00  0.00     0.111 A 
ATOM      6  C   UNL     1      26.263  36.439  33.950  1.00  0.00     0.134 A 
ATOM      7  C   UNL     1      26.808  35.428  33.143  1.00  0.00     0.093 A 
ATOM      8  C   UNL     1      26.936  35.608  31.764  1.00  0.00     0.123 A 
ATOM      9  C   UNL     1      26.519  36.807  31.177  1.00  0.00     0.094 A 
ATOM     10  C   UNL     1      25.971  37.825  31.963  1.00  0.00     0.146 A 
ATOM     11  O   UNL     1      25.578  38.952  31.379  1.00  0.00    -0.452 OA
ENDROOT
BRANCH   1  12
ATOM     12  C   UNL     1      24.633  41.169  31.275  1.00  0.00     0.025 A 
ATOM     13  C   UNL     1      23.374  41.193  30.655  1.00  0.00     0.016 A 
ATOM     14  C   UNL     1      22.958  42.321  29.942  1.00  0.00     0.051 A 
ATOM     15  C   UNL     1      23.789  43.444  29.851  1.00  0.00     0.157 A 
ATOM     16  C   UNL     1      25.455  42.308  31.199  1.00  0.00     0.062 A 
ATOM     17  C   UNL     1      25.038  43.440  30.485  1.00  0.00     0.158 A 
BRANCH  15  18
ATOM     18  O   UNL     1      23.379  44.571  29.140  1.00  0.00    -0.504 OA
ATOM     19  H   UNL     1      24.034  45.304  28.888  1.00  0.00     0.293 HD
ENDBRANCH  15  18
BRANCH  17  20
ATOM     20  O   UNL     1      25.857  44.565  30.406  1.00  0.00    -0.504 OA
ATOM     21  H   UNL     1      25.986  45.067  29.536  1.00  0.00     0.293 HD
ENDBRANCH  17  20
ENDBRANCH   1  12
BRANCH   2  22
ATOM     22  O   UNL     1      24.396  40.984  34.162  1.00  0.00    -0.502 OA
ATOM     23  H   UNL     1      23.436  41.028  34.483  1.00  0.00     0.293 HD
ENDBRANCH   2  22
BRANCH   6  24
ATOM     24  O   UNL     1      26.148  36.227  35.325  1.00  0.00    -0.507 OA
ATOM     25  H   UNL     1      26.952  36.274  35.939  1.00  0.00     0.293 HD
ENDBRANCH   6  24
BRANCH   8  26
ATOM     26  O   UNL     1      27.482  34.589  30.986  1.00  0.00    -0.508 OA
ATOM     27  H   UNL     1      26.894  33.921  30.501  1.00  0.00     0.293 HD
ENDBRANCH   8  26
TORSDOF 6
ENDMDL
MODEL 2
REMARK VINA RESULT:    -5.777      1.774      6.788
REMARK INTER + INTRA:          -7.257
REMARK INTER:                  -7.002
REMARK INTRA:                  -0.255
REMARK UNBOUND:                -0.298
REMARK SMILES O=c1c(O)c(-c2ccc(O)c(O)c2)oc2cc(O)cc(O)c12
REMARK SMILES IDX 5 1 3 2 2 3 1 4 22 5 20 6 19 7 17 8 16 9 15 10 14 11 6 12
REMARK SMILES IDX 7 13 8 14 9 15 13 16 11 17 10 18 12 20 4 22 21 24 18 26
REMARK H PARENT 10 19 12 21 4 23 21 25 18 27
REMARK Flexibility Score: inf
ROOT
ATOM      1  C   UNL     1      25.778  37.273  32.063  1.00  0.00     0.180 A 
ATOM      2  C   UNL     1      24.676  37.151  32.931  1.00  0.00     0.208 A 
ATOM      3  C   UNL     1      23.850  38.266  33.140  1.00  0.00     0.238 A 
ATOM      4  O   UNL     1      22.865  38.172  33.923  1.00  0.00    -0.285 OA
ATOM      5  C   UNL     1      24.126  39.474  32.467  1.00  0.00     0.111 A 
ATOM      6  C   UNL     1      23.342  40.643  32.620  1.00  0.00     0.134 A 
ATOM      7  C   UNL     1      23.678  41.804  31.908  1.00  0.00     0.093 A 
ATOM      8  C   UNL     1      24.778  41.820  31.048  1.00  0.00     0.123 A 
ATOM      9  C   UNL     1      25.556  40.668  30.893  1.00  0.00     0.094 A 
ATOM     10  C   UNL     1      25.240  39.502  31.596  1.00  0.00     0.146 A 
ATOM     11  O   UNL     1      25.999  38.423  31.435  1.00  0.00    -0.452 OA
ENDROOT
BRANCH   1  12
ATOM     12  C   UNL     1      26.705  36.148  31.806  1.00  0.00     0.025 A 
ATOM     13  C   UNL     1      26.304  35.103  30.959  1.00  0.00     0.016 A 
ATOM     14  C   UNL     1      27.170  34.041  30.686  1.00  0.00     0.051 A 
ATOM     15  C   UNL     1      28.454  34.016  31.242  1.00  0.00     0.157 A 
ATOM     16  C   UNL     1      28.004  36.129  32.347  1.00  0.00     0.062 A 
ATOM     17  C   UNL     1      28.874  35.065  32.071  1.00  0.00     0.158 A 
BRANCH  15  18
ATOM     18  O   UNL     1      29.322  32.959  30.974  1.00  0.00    -0.504 OA
ATOM     19  H   UNL     1      28.999  31.997  30.973  1.00  0.00     0.293 HD
ENDBRANCH  15  18
BRANCH  17  20
ATOM     20  O   UNL     1      30.158  35.046  32.613  1.00  0.00    -0.504 OA
ATOM     21  H   UNL     1      30.581  35.878  33.004  1.00  0.00     0.293 HD
ENDBRANCH  17  20
ENDBRANCH   1  12
BRANCH   2  22
ATOM     22  O   UNL     1      24.394  35.928  33.547  1.00  0.00    -0.502 OA
ATOM     23  H   UNL     1      23.447  35.590  33.675  1.00  0.00     0.293 HD
ENDBRANCH   2  22
BRANCH   6  24
ATOM     24  O   UNL     1      22.236  40.660  33.471  1.00  0.00    -0.507 OA
ATOM     25  H   UNL     1      21.396  41.179  33.243  1.00  0.00     0.293 HD
ENDBRANCH   6  24
BRANCH   8  26
ATOM     26  O   UNL     1      25.089  42.985  30.351  1.00  0.00    -0.508 OA
ATOM     27  H   UNL     1      24.874  43.087  29.366  1.00  0.00     0.293 HD
ENDBRANCH   8  26
TORSDOF 6
ENDMDL
MODEL 3
REMARK VINA RESULT:    -5.622      1.868      6.900
REMARK INTER + INTRA:          -7.071
REMARK INTER:                  -6.747
REMARK INTRA:                  -0.325
REMARK UNBOUND:                -0.298
REMARK SMILES O=c1c(O)c(-c2ccc(O)c(O)c2)oc2cc(O)cc(O)c12
REMARK SMILES IDX 5 1 3 2 2 3 1 4 22 5 20 6 19 7 17 8 16 9 15 10 14 11 6 12
REMARK SMILES IDX 7 13 8 14 9 15 13 16 11 17 10 18 12 20 4 22 21 24 18 26
REMARK H PARENT 10 19 12 21 4 23 21 25 18 27
REMARK Flexibility Score: inf
ROOT
ATOM      1  C   UNL     1      25.717  38.238  33.651  1.00  0.00     0.180 A 
ATOM      2  C   UNL     1      24.726  38.507  34.614  1.00  0.00     0.208 A 
ATOM      3  C   UNL     1      23.773  39.501  34.347  1.00  0.00     0.238 A 
ATOM      4  O   UNL     1      22.886  39.758  35.206  1.00  0.00    -0.285 OA
ATOM      5  C   UNL     1      23.813  40.193  33.119  1.00  0.00     0.111 A 
ATOM      6  C   UNL     1      22.887  41.206  32.770  1.00  0.00     0.134 A 
ATOM      7  C   UNL     1      22.990  41.843  31.523  1.00  0.00     0.093 A 
ATOM      8  C   UNL     1      23.995  41.487  30.622  1.00  0.00     0.123 A 
ATOM      9  C   UNL     1      24.912  40.487  30.961  1.00  0.00     0.094 A 
ATOM     10  C   UNL     1      24.829  39.843  32.199  1.00  0.00     0.146 A 
ATOM     11  O   UNL     1      25.716  38.900  32.498  1.00  0.00    -0.452 OA
ENDROOT
BRANCH   1  12
ATOM     12  C   UNL     1      26.768  37.217  33.868  1.00  0.00     0.025 A 
ATOM     13  C   UNL     1      27.964  37.583  34.505  1.00  0.00     0.016 A 
ATOM     14  C   UNL     1      28.962  36.632  34.739  1.00  0.00     0.051 A 
ATOM     15  C   UNL     1      28.770  35.300  34.354  1.00  0.00     0.157 A 
ATOM     16  C   UNL     1      26.573  35.873  33.502  1.00  0.00     0.062 A 
ATOM     17  C   UNL     1      27.571  34.918  33.738  1.00  0.00     0.158 A 
BRANCH  15  18
ATOM     18  O   UNL     1      29.762  34.348  34.584  1.00  0.00    -0.504 OA
ATOM     19  H   UNL     1      30.023  33.674  33.873  1.00  0.00     0.293 HD
ENDBRANCH  15  18
BRANCH  17  20
ATOM     20  O   UNL     1      27.378  33.589  33.368  1.00  0.00    -0.504 OA
ATOM     21  H   UNL     1      26.753  33.333  32.613  1.00  0.00     0.293 HD
ENDBRANCH  17  20
ENDBRANCH   1  12
BRANCH   2  22
ATOM     22  O   UNL     1      24.677  37.772  35.802  1.00  0.00    -0.502 OA
ATOM     23  H   UNL     1      24.188  38.103  36.625  1.00  0.00     0.293 HD
ENDBRANCH   2  22
BRANCH   6  24
ATOM     24  O   UNL     1      21.871  41.584  33.648  1.00  0.00    -0.507 OA
ATOM     25  H   UNL     1      22.026  41.645  34.648  1.00  0.00     0.293 HD
ENDBRANCH   6  24
BRANCH   8  26
ATOM     26  O   UNL     1      24.074  42.134  29.390  1.00  0.00    -0.508 OA
ATOM     27  H   UNL     1      24.936  42.158  28.859  1.00  0.00     0.293 HD
ENDBRANCH   8  26
TORSDOF 6
ENDMDL
MODEL 4
REMARK VINA RESULT:    -5.622      2.538      6.869
REMARK INTER + INTRA:          -7.071
REMARK INTER:                  -6.752
REMARK INTRA:                  -0.319
REMARK UNBOUND:                -0.298
REMARK SMILES O=c1c(O)c(-c2ccc(O)c(O)c2)oc2cc(O)cc(O)c12
REMARK SMILES IDX 5 1 3 2 2 3 1 4 22 5 20 6 19 7 17 8 16 9 15 10 14 11 6 12
REMARK SMILES IDX 7 13 8 14 9 15 13 16 11 17 10 18 12 20 4 22 21 24 18 26
REMARK H PARENT 10 19 12 21 4 23 21 25 18 27
REMARK Flexibility Score: inf
ROOT
ATOM      1  C   UNL     1      26.365  37.508  32.277  1.00  0.00     0.180 A 
ATOM      2  C   UNL     1      26.109  38.570  31.389  1.00  0.00     0.208 A 
ATOM      3  C   UNL     1      25.376  39.675  31.846  1.00  0.00     0.238 A 
ATOM      4  O   UNL     1      25.132  40.628  31.058  1.00  0.00    -0.285 OA
ATOM      5  C   UNL     1      24.928  39.709  33.184  1.00  0.00     0.111 A 
ATOM      6  C   UNL     1      24.186  40.787  33.725  1.00  0.00     0.134 A 
ATOM      7  C   UNL     1      23.785  40.750  35.069  1.00  0.00     0.093 A 
ATOM      8  C   UNL     1      24.110  39.660  35.880  1.00  0.00     0.123 A 
ATOM      9  C   UNL     1      24.843  38.593  35.350  1.00  0.00     0.094 A 
ATOM     10  C   UNL     1      25.250  38.610  34.013  1.00  0.00     0.146 A 
ATOM     11  O   UNL     1      25.940  37.581  33.534  1.00  0.00    -0.452 OA
ENDROOT
BRANCH   1  12
ATOM     12  C   UNL     1      27.116  36.300  31.863  1.00  0.00     0.025 A 
ATOM     13  C   UNL     1      26.437  35.252  31.222  1.00  0.00     0.016 A 
ATOM     14  C   UNL     1      27.128  34.112  30.804  1.00  0.00     0.051 A 
ATOM     15  C   UNL     1      28.510  34.011  31.006  1.00  0.00     0.157 A 
ATOM     16  C   UNL     1      28.507  36.203  32.045  1.00  0.00     0.062 A 
ATOM     17  C   UNL     1      29.202  35.061  31.624  1.00  0.00     0.158 A 
BRANCH  15  18
ATOM     18  O   UNL     1      29.205  32.875  30.592  1.00  0.00    -0.504 OA
ATOM     19  H   UNL     1      28.749  31.972  30.526  1.00  0.00     0.293 HD
ENDBRANCH  15  18
BRANCH  17  20
ATOM     20  O   UNL     1      30.580  34.964  31.811  1.00  0.00    -0.504 OA
ATOM     21  H   UNL     1      31.127  34.241  31.360  1.00  0.00     0.293 HD
ENDBRANCH  17  20
ENDBRANCH   1  12
BRANCH   2  22
ATOM     22  O   UNL     1      26.607  38.535  30.083  1.00  0.00    -0.502 OA
ATOM     23  H   UNL     1      27.440  39.040  29.806  1.00  0.00     0.293 HD
ENDBRANCH   2  22
BRANCH   6  24
ATOM     24  O   UNL     1      23.846  41.890  32.941  1.00  0.00    -0.507 OA
ATOM     25  H   UNL     1      23.704  41.810  31.941  1.00  0.00     0.293 HD
ENDBRANCH   6  24
BRANCH   8  26
ATOM     26  O   UNL     1      23.701  39.649  37.211  1.00  0.00    -0.508 OA
ATOM     27  H   UNL     1      23.126  38.901  37.582  1.00  0.00     0.293 HD
ENDBRANCH   8  26
TORSDOF 6
ENDMDL
MODEL 5
REMARK VINA RESULT:    -5.456      2.550      4.742
REMARK INTER + INTRA:          -6.870
REMARK INTER:                  -6.541
REMARK INTRA:                  -0.329
REMARK UNBOUND:                -0.298
REMARK SMILES O=c1c(O)c(-c2ccc(O)c(O)c2)oc2cc(O)cc(O)c12
REMARK SMILES IDX 5 1 3 2 2 3 1 4 22 5 20 6 19 7 17 8 16 9 15 10 14 11 6 12
REMARK SMILES IDX 7 13 8 14 9 15 13 16 11 17 10 18 12 20 4 22 21 24 18 26
REMARK H PARENT 10 19 12 21 4 23 21 25 18 27
REMARK Flexibility Score: inf
ROOT
ATOM      1  C   UNL     1      26.788  36.835  32.223  1.00  0.00     0.180 A 
ATOM      2  C   UNL     1      26.756  35.735  31.345  1.00  0.00     0.208 A 
ATOM      3  C   UNL     1      27.777  34.776  31.421  1.00  0.00     0.238 A 
ATOM      4  O   UNL     1      27.765  33.791  30.633  1.00  0.00    -0.285 OA
ATOM      5  C   UNL     1      28.798  34.919  32.384  1.00  0.00     0.111 A 
ATOM      6  C   UNL     1      29.861  33.995  32.529  1.00  0.00     0.134 A 
ATOM      7  C   UNL     1      30.834  34.205  33.518  1.00  0.00     0.093 A 
ATOM      8  C   UNL     1      30.765  35.316  34.362  1.00  0.00     0.123 A 
ATOM      9  C   UNL     1      29.717  36.232  34.223  1.00  0.00     0.094 A 
ATOM     10  C   UNL     1      28.740  36.042  33.242  1.00  0.00     0.146 A 
ATOM     11  O   UNL     1      27.758  36.930  33.128  1.00  0.00    -0.452 OA
ENDROOT
BRANCH   1  12
ATOM     12  C   UNL     1      25.758  37.898  32.191  1.00  0.00     0.025 A 
ATOM     13  C   UNL     1      24.689  37.851  33.099  1.00  0.00     0.016 A 
ATOM     14  C   UNL     1      23.716  38.854  33.101  1.00  0.00     0.051 A 
ATOM     15  C   UNL     1      23.807  39.926  32.205  1.00  0.00     0.157 A 
ATOM     16  C   UNL     1      25.855  38.988  31.307  1.00  0.00     0.062 A 
ATOM     17  C   UNL     1      24.881  39.996  31.309  1.00  0.00     0.158 A 
BRANCH  15  18
ATOM     18  O   UNL     1      22.838  40.929  32.201  1.00  0.00    -0.504 OA
ATOM     19  H   UNL     1      22.438  41.281  33.063  1.00  0.00     0.293 HD
ENDBRANCH  15  18
BRANCH  17  20
ATOM     20  O   UNL     1      24.977  41.071  30.427  1.00  0.00    -0.504 OA
ATOM     21  H   UNL     1      24.601  41.982  30.660  1.00  0.00     0.293 HD
ENDBRANCH  17  20
ENDBRANCH   1  12
BRANCH   2  22
ATOM     22  O   UNL     1      25.706  35.589  30.433  1.00  0.00    -0.502 OA
ATOM     23  H   UNL     1      25.853  35.268  29.484  1.00  0.00     0.293 HD
ENDBRANCH   2  22
BRANCH   6  24
ATOM     24  O   UNL     1      29.958  32.875  31.702  1.00  0.00    -0.507 OA
ATOM     25  H   UNL     1      30.734  32.228  31.772  1.00  0.00     0.293 HD
ENDBRANCH   6  24
BRANCH   8  26
ATOM     26  O   UNL     1      31.744  35.499  35.337  1.00  0.00    -0.508 OA
ATOM     27  H   UNL     1      31.549  35.344  36.319  1.00  0.00     0.293 HD
ENDBRANCH   8  26
TORSDOF 6
ENDMDL
MODEL 6
REMARK VINA RESULT:    -5.439      3.201      6.268
REMARK INTER + INTRA:          -6.851
REMARK INTER:                  -6.770
REMARK INTRA:                  -0.081
REMARK UNBOUND:                -0.298
REMARK SMILES O=c1c(O)c(-c2ccc(O)c(O)c2)oc2cc(O)cc(O)c12
REMARK SMILES IDX 5 1 3 2 2 3 1 4 22 5 20 6 19 7 17 8 16 9 15 10 14 11 6 12
REMARK SMILES IDX 7 13 8 14 9 15 13 16 11 17 10 18 12 20 4 22 21 24 18 26
REMARK H PARENT 10 19 12 21 4 23 21 25 18 27
REMARK Flexibility Score: inf
ROOT
ATOM      1  C   UNL     1      24.303  39.961  35.287  1.00  0.00     0.180 A 
ATOM      2  C   UNL     1      23.829  40.940  34.393  1.00  0.00     0.208 A 
ATOM      3  C   UNL     1      24.224  40.879  33.048  1.00  0.00     0.238 A 
ATOM      4  O   UNL     1      23.814  41.755  32.239  1.00  0.00    -0.285 OA
ATOM      5  C   UNL     1      25.067  39.834  32.616  1.00  0.00     0.111 A 
ATOM      6  C   UNL     1      25.508  39.697  31.277  1.00  0.00     0.134 A 
ATOM      7  C   UNL     1      26.339  38.623  30.925  1.00  0.00     0.093 A 
ATOM      8  C   UNL     1      26.736  37.685  31.881  1.00  0.00     0.123 A 
ATOM      9  C   UNL     1      26.303  37.815  33.204  1.00  0.00     0.094 A 
ATOM     10  C   UNL     1      25.477  38.879  33.576  1.00  0.00     0.146 A 
ATOM     11  O   UNL     1      25.085  38.982  34.841  1.00  0.00    -0.452 OA
ENDROOT
BRANCH   1  12
ATOM     12  C   UNL     1      23.946  39.970  36.724  1.00  0.00     0.025 A 
ATOM     13  C   UNL     1      24.237  41.102  37.501  1.00  0.00     0.016 A 
ATOM     14  C   UNL     1      23.891  41.141  38.854  1.00  0.00     0.051 A 
ATOM     15  C   UNL     1      23.235  40.055  39.445  1.00  0.00     0.157 A 
ATOM     16  C   UNL     1      23.268  38.890  37.318  1.00  0.00     0.062 A 
ATOM     17  C   UNL     1      22.918  38.928  38.675  1.00  0.00     0.158 A 
BRANCH  15  18
ATOM     18  O   UNL     1      22.888  40.088  40.795  1.00  0.00    -0.504 OA
ATOM     19  H   UNL     1      22.322  39.358  41.213  1.00  0.00     0.293 HD
ENDBRANCH  15  18
BRANCH  17  20
ATOM     20  O   UNL     1      22.252  37.854  39.262  1.00  0.00    -0.504 OA
ATOM     21  H   UNL     1      21.257  37.715  39.138  1.00  0.00     0.293 HD
ENDBRANCH  17  20
ENDBRANCH   1  12
BRANCH   2  22
ATOM     22  O   UNL     1      22.954  41.937  34.835  1.00  0.00    -0.502 OA
ATOM     23  H   UNL     1      23.095  42.917  34.619  1.00  0.00     0.293 HD
ENDBRANCH   2  22
BRANCH   6  24
ATOM     24  O   UNL     1      25.129  40.617  30.298  1.00  0.00    -0.507 OA
ATOM     25  H   UNL     1      25.165  40.390  29.312  1.00  0.00     0.293 HD
ENDBRANCH   6  24
BRANCH   8  26
ATOM     26  O   UNL     1      27.561  36.627  31.504  1.00  0.00    -0.508 OA
ATOM     27  H   UNL     1      27.893  35.948  32.179  1.00  0.00     0.293 HD
ENDBRANCH   8  26
TORSDOF 6
ENDMDL
MODEL 7
REMARK VINA RESULT:    -5.422      5.973      7.766
REMARK INTER + INTRA:          -6.830
REMARK INTER:                  -6.576
REMARK INTRA:                  -0.254
REMARK UNBOUND:                -0.298
REMARK SMILES O=c1c(O)c(-c2ccc(O)c(O)c2)oc2cc(O)cc(O)c12
REMARK SMILES IDX 5 1 3 2 2 3 1 4 22 5 20 6 19 7 17 8 16 9 15 10 14 11 6 12
REMARK SMILES IDX 7 13 8 14 9 15 13 16 11 17 10 18 12 20 4 22 21 24 18 26
REMARK H PARENT 10 19 12 21 4 23 21 25 18 27
REMARK Flexibility Score: inf
ROOT
ATOM      1  C   UNL     1      29.997  38.870  29.533  1.00  0.00     0.180 A 
ATOM      2  C   UNL     1      31.095  39.537  30.110  1.00  0.00     0.208 A 
ATOM      3  C   UNL     1      32.211  39.824  29.309  1.00  0.00     0.238 A 
ATOM      4  O   UNL     1      33.204  40.412  29.816  1.00  0.00    -0.285 OA
ATOM      5  C   UNL     1      32.203  39.459  27.947  1.00  0.00     0.111 A 
ATOM      6  C   UNL     1      33.286  39.715  27.070  1.00  0.00     0.134 A 
ATOM      7  C   UNL     1      33.197  39.329  25.724  1.00  0.00     0.093 A 
ATOM      8  C   UNL     1      32.052  38.694  25.239  1.00  0.00     0.123 A 
ATOM      9  C   UNL     1      30.980  38.439  26.100  1.00  0.00     0.094 A 
ATOM     10  C   UNL     1      31.049  38.814  27.445  1.00  0.00     0.146 A 
ATOM     11  O   UNL     1      30.019  38.554  28.242  1.00  0.00    -0.452 OA
ENDROOT
BRANCH   1  12
ATOM     12  C   UNL     1      28.791  38.516  30.318  1.00  0.00     0.025 A 
ATOM     13  C   UNL     1      28.857  37.465  31.247  1.00  0.00     0.016 A 
ATOM     14  C   UNL     1      27.738  37.127  32.013  1.00  0.00     0.051 A 
ATOM     15  C   UNL     1      26.544  37.844  31.873  1.00  0.00     0.157 A 
ATOM     16  C   UNL     1      27.596  39.246  30.195  1.00  0.00     0.062 A 
ATOM     17  C   UNL     1      26.474  38.910  30.965  1.00  0.00     0.158 A 
BRANCH  15  18
ATOM     18  O   UNL     1      25.424  37.510  32.633  1.00  0.00    -0.504 OA
ATOM     19  H   UNL     1      24.709  38.196  32.850  1.00  0.00     0.293 HD
ENDBRANCH  15  18
BRANCH  17  20
ATOM     20  O   UNL     1      25.288  39.631  30.837  1.00  0.00    -0.504 OA
ATOM     21  H   UNL     1      24.390  39.168  30.769  1.00  0.00     0.293 HD
ENDBRANCH  17  20
ENDBRANCH   1  12
BRANCH   2  22
ATOM     22  O   UNL     1      31.057  39.932  31.450  1.00  0.00    -0.502 OA
ATOM     23  H   UNL     1      31.688  39.553  32.146  1.00  0.00     0.293 HD
ENDBRANCH   2  22
BRANCH   6  24
ATOM     24  O   UNL     1      34.444  40.348  27.525  1.00  0.00    -0.507 OA
ATOM     25  H   UNL     1      34.545  41.356  27.500  1.00  0.00     0.293 HD
ENDBRANCH   6  24
BRANCH   8  26
ATOM     26  O   UNL     1      31.990  38.322  23.898  1.00  0.00    -0.508 OA
ATOM     27  H   UNL     1      31.122  38.014  23.473  1.00  0.00     0.293 HD
ENDBRANCH   8  26
TORSDOF 6
ENDMDL
MODEL 8
REMARK VINA RESULT:    -5.359      2.838      5.066
REMARK INTER + INTRA:          -6.754
REMARK INTER:                  -6.460
REMARK INTRA:                  -0.294
REMARK UNBOUND:                -0.298
REMARK SMILES O=c1c(O)c(-c2ccc(O)c(O)c2)oc2cc(O)cc(O)c12
REMARK SMILES IDX 5 1 3 2 2 3 1 4 22 5 20 6 19 7 17 8 16 9 15 10 14 11 6 12
REMARK SMILES IDX 7 13 8 14 9 15 13 16 11 17 10 18 12 20 4 22 21 24 18 26
REMARK H PARENT 10 19 12 21 4 23 21 25 18 27
REMARK Flexibility Score: inf
ROOT
ATOM      1  C   UNL     1      24.213  39.746  34.354  1.00  0.00     0.180 A 
ATOM      2  C   UNL     1      24.559  40.544  33.247  1.00  0.00     0.208 A 
ATOM      3  C   UNL     1      25.241  39.954  32.171  1.00  0.00     0.238 A 
ATOM      4  O   UNL     1      25.565  40.662  31.179  1.00  0.00    -0.285 OA
ATOM      5  C   UNL     1      25.546  38.578  32.210  1.00  0.00     0.111 A 
ATOM      6  C   UNL     1      26.227  37.906  31.166  1.00  0.00     0.134 A 
ATOM      7  C   UNL     1      26.486  36.531  31.277  1.00  0.00     0.093 A 
ATOM      8  C   UNL     1      26.079  35.818  32.407  1.00  0.00     0.123 A 
ATOM      9  C   UNL     1      25.406  36.477  33.441  1.00  0.00     0.094 A 
ATOM     10  C   UNL     1      25.140  37.846  33.351  1.00  0.00     0.146 A 
ATOM     11  O   UNL     1      24.505  38.449  34.350  1.00  0.00    -0.452 OA
ENDROOT
BRANCH   1  12
ATOM     12  C   UNL     1      23.511  40.300  35.534  1.00  0.00     0.025 A 
ATOM     13  C   UNL     1      22.120  40.482  35.487  1.00  0.00     0.016 A 
ATOM     14  C   UNL     1      21.433  40.983  36.596  1.00  0.00     0.051 A 
ATOM     15  C   UNL     1      22.125  41.294  37.772  1.00  0.00     0.157 A 
ATOM     16  C   UNL     1      24.199  40.594  36.725  1.00  0.00     0.062 A 
ATOM     17  C   UNL     1      23.510  41.095  37.839  1.00  0.00     0.158 A 
BRANCH  15  18
ATOM     18  O   UNL     1      21.445  41.796  38.881  1.00  0.00    -0.504 OA
ATOM     19  H   UNL     1      20.492  41.519  39.087  1.00  0.00     0.293 HD
ENDBRANCH  15  18
BRANCH  17  20
ATOM     20  O   UNL     1      24.195  41.392  39.016  1.00  0.00    -0.504 OA
ATOM     21  H   UNL     1      25.081  40.956  39.240  1.00  0.00     0.293 HD
ENDBRANCH  17  20
ENDBRANCH   1  12
BRANCH   2  22
ATOM     22  O   UNL     1      24.201  41.895  33.210  1.00  0.00    -0.502 OA
ATOM     23  H   UNL     1      23.266  42.202  32.969  1.00  0.00     0.293 HD
ENDBRANCH   2  22
BRANCH   6  24
ATOM     24  O   UNL     1      26.646  38.590  30.025  1.00  0.00    -0.507 OA
ATOM     25  H   UNL     1      27.511  38.356  29.551  1.00  0.00     0.293 HD
ENDBRANCH   6  24
BRANCH   8  26
ATOM     26  O   UNL     1      26.347  34.453  32.491  1.00  0.00    -0.508 OA
ATOM     27  H   UNL     1      26.730  33.940  31.706  1.00  0.00     0.293 HD
ENDBRANCH   8  26
TORSDOF 6
ENDMDL
MODEL 9
REMARK VINA RESULT:    -5.326      2.526      6.922
REMARK INTER + INTRA:          -6.714
REMARK INTER:                  -6.385
REMARK INTRA:                  -0.329
REMARK UNBOUND:                -0.298
REMARK SMILES O=c1c(O)c(-c2ccc(O)c(O)c2)oc2cc(O)cc(O)c12
REMARK SMILES IDX 5 1 3 2 2 3 1 4 22 5 20 6 19 7 17 8 16 9 15 10 14 11 6 12
REMARK SMILES IDX 7 13 8 14 9 15 13 16 11 17 10 18 12 20 4 22 21 24 18 26
REMARK H PARENT 10 19 12 21 4 23 21 25 18 27
REMARK Flexibility Score: inf
ROOT
ATOM      1  C   UNL     1      26.639  37.849  32.275  1.00  0.00     0.180 A 
ATOM      2  C   UNL     1      26.091  38.733  31.326  1.00  0.00     0.208 A 
ATOM      3  C   UNL     1      25.111  39.649  31.738  1.00  0.00     0.238 A 
ATOM      4  O   UNL     1      24.606  40.439  30.896  1.00  0.00    -0.285 OA
ATOM      5  C   UNL     1      24.710  39.679  33.090  1.00  0.00     0.111 A 
ATOM      6  C   UNL     1      23.732  40.574  33.588  1.00  0.00     0.134 A 
ATOM      7  C   UNL     1      23.395  40.547  34.950  1.00  0.00     0.093 A 
ATOM      8  C   UNL     1      24.014  39.648  35.821  1.00  0.00     0.123 A 
ATOM      9  C   UNL     1      24.982  38.763  35.334  1.00  0.00     0.094 A 
ATOM     10  C   UNL     1      25.330  38.771  33.981  1.00  0.00     0.146 A 
ATOM     11  O   UNL     1      26.248  37.916  33.544  1.00  0.00    -0.452 OA
ENDROOT
BRANCH   1  12
ATOM     12  C   UNL     1      27.663  36.842  31.912  1.00  0.00     0.025 A 
ATOM     13  C   UNL     1      29.023  37.178  32.003  1.00  0.00     0.016 A 
ATOM     14  C   UNL     1      30.007  36.238  31.686  1.00  0.00     0.051 A 
ATOM     15  C   UNL     1      29.645  34.945  31.290  1.00  0.00     0.157 A 
ATOM     16  C   UNL     1      27.305  35.536  31.534  1.00  0.00     0.062 A 
ATOM     17  C   UNL     1      28.292  34.591  31.218  1.00  0.00     0.158 A 
BRANCH  15  18
ATOM     18  O   UNL     1      30.623  34.003  30.971  1.00  0.00    -0.504 OA
ATOM     19  H   UNL     1      30.383  33.038  30.775  1.00  0.00     0.293 HD
ENDBRANCH  15  18
BRANCH  17  20
ATOM     20  O   UNL     1      27.935  33.299  30.837  1.00  0.00    -0.504 OA
ATOM     21  H   UNL     1      27.681  32.595  31.520  1.00  0.00     0.293 HD
ENDBRANCH  17  20
ENDBRANCH   1  12
BRANCH   2  22
ATOM     22  O   UNL     1      26.541  38.717  30.002  1.00  0.00    -0.502 OA
ATOM     23  H   UNL     1      26.479  37.892  29.418  1.00  0.00     0.293 HD
ENDBRANCH   2  22
BRANCH   6  24
ATOM     24  O   UNL     1      23.095  41.484  32.744  1.00  0.00    -0.507 OA
ATOM     25  H   UNL     1      22.515  41.179  31.972  1.00  0.00     0.293 HD
ENDBRANCH   6  24
BRANCH   8  26
ATOM     26  O   UNL     1      23.662  39.644  37.169  1.00  0.00    -0.508 OA
ATOM     27  H   UNL     1      22.713  39.449  37.467  1.00  0.00     0.293 HD
ENDBRANCH   8  26
TORSDOF 6
ENDMDL
