MODEL 1
REMARK VINA RESULT:    -4.661      0.000      0.000
REMARK INTER + INTRA:         -15.637
REMARK INTER:                 -11.746
REMARK INTRA:                  -3.892
REMARK UNBOUND:                -3.892
REMARK SMILES CCCCCCCCCCCCCCCCCCCCCCCCCCCC(=O)[O-]
REMARK SMILES IDX 15 1 16 2 17 3 18 4 19 5 20 6 21 7 22 8 23 9 24 10 25 11
REMARK SMILES IDX 26 12 27 13 28 14 29 15 30 16 14 17 13 18 12 19 11 20 10 21
REMARK SMILES IDX 9 22 8 23 7 24 6 25 5 26 4 27 3 28 2 29 1 30
REMARK H PARENT
REMARK Flexibility Score: inf
ROOT
ATOM      1  C   UNL     1     100.493 315.108 187.945  1.00  0.00     0.000 C 
ENDROOT
BRANCH   1   2
ATOM      2  C   UNL     1     101.552 314.785 186.879  1.00  0.00     0.000 C 
BRANCH   2   3
ATOM      3  C   UNL     1     102.029 313.323 186.936  1.00  0.00     0.000 C 
BRANCH   3   4
ATOM      4  C   UNL     1     103.549 313.202 187.127  1.00  0.00     0.000 C 
BRANCH   4   5
ATOM      5  C   UNL     1     104.183 314.514 187.621  1.00  0.00     0.000 C 
BRANCH   5   6
ATOM      6  C   UNL     1     104.490 314.498 189.128  1.00  0.00     0.000 C 
BRANCH   6   7
ATOM      7  C   UNL     1     104.355 313.093 189.742  1.00  0.00     0.000 C 
BRANCH   7   8
ATOM      8  C   UNL     1     103.139 312.972 190.676  1.00  0.00     0.000 C 
BRANCH   8   9
ATOM      9  C   UNL     1     102.823 314.290 191.402  1.00  0.00     0.000 C 
BRANCH   9  10
ATOM     10  C   UNL     1     101.535 314.174 192.224  1.00  0.00     0.000 C 
BRANCH  10  11
ATOM     11  C   UNL     1     100.601 313.107 191.631  1.00  0.00     0.000 C 
BRANCH  11  12
ATOM     12  C   UNL     1     100.219 312.016 192.647  1.00  0.00     0.006 C 
BRANCH  12  13
ATOM     13  C   UNL     1      99.561 312.549 193.930  1.00  0.00     0.053 C 
BRANCH  13  14
ATOM     14  C   UNL     1      98.175 313.061 193.680  1.00  0.00     0.041 C 
ATOM     15  O   UNL     1      97.378 312.405 192.960  1.00  0.00    -0.550 OA
ATOM     16  O   UNL     1      97.771 314.274 194.225  1.00  0.00    -0.550 OA
ENDBRANCH  13  14
ENDBRANCH  12  13
ENDBRANCH  11  12
ENDBRANCH  10  11
ENDBRANCH   9  10
ENDBRANCH   8   9
ENDBRANCH   7   8
ENDBRANCH   6   7
ENDBRANCH   5   6
ENDBRANCH   4   5
ENDBRANCH   3   4
ENDBRANCH   2   3
ENDBRANCH   1   2
BRANCH   1  17
ATOM     17  C   UNL     1     100.952 316.215 188.909  1.00  0.00     0.000 C 
BRANCH  17  18
ATOM     18  C   UNL     1     100.459 317.615 188.502  1.00  0.00     0.000 C 
BRANCH  18  19
ATOM     19  C   UNL     1      99.350 317.636 187.433  1.00  0.00     0.000 C 
BRANCH  19  20
ATOM     20  C   UNL     1      98.026 318.222 187.949  1.00  0.00     0.000 C 
BRANCH  20  21
ATOM     21  C   UNL     1      98.128 318.603 189.435  1.00  0.00     0.000 C 
BRANCH  21  22
ATOM     22  C   UNL     1      97.343 317.638 190.347  1.00  0.00    -0.000 C 
BRANCH  22  23
ATOM     23  C   UNL     1      97.083 316.256 189.720  1.00  0.00    -0.000 C 
BRANCH  23  24
ATOM     24  C   UNL     1      95.620 315.800 189.852  1.00  0.00    -0.000 C 
BRANCH  24  25
ATOM     25  C   UNL     1      94.720 316.358 188.739  1.00  0.00    -0.000 C 
BRANCH  25  26
ATOM     26  C   UNL     1      93.254 316.500 189.180  1.00  0.00    -0.000 C 
BRANCH  26  27
ATOM     27  C   UNL     1      93.124 316.970 190.638  1.00  0.00    -0.000 C 
BRANCH  27  28
ATOM     28  C   UNL     1      92.835 318.477 190.748  1.00  0.00    -0.000 C 
BRANCH  28  29
ATOM     29  C   UNL     1      93.965 319.242 191.453  1.00  0.00    -0.003 C 
ATOM     30  C   UNL     1      94.370 318.604 192.782  1.00  0.00     0.004 C 
ENDBRANCH  28  29
ENDBRANCH  27  28
ENDBRANCH  26  27
ENDBRANCH  25  26
ENDBRANCH  24  25
ENDBRANCH  23  24
ENDBRANCH  22  23
ENDBRANCH  21  22
ENDBRANCH  20  21
ENDBRANCH  19  20
ENDBRANCH  18  19
ENDBRANCH  17  18
ENDBRANCH   1  17
TORSDOF 26
ENDMDL
MODEL 2
REMARK VINA RESULT:    -4.523      2.294      4.615
REMARK INTER + INTRA:         -15.290
REMARK INTER:                 -12.279
REMARK INTRA:                  -3.011
REMARK UNBOUND:                -3.892
REMARK SMILES CCCCCCCCCCCCCCCCCCCCCCCCCCCC(=O)[O-]
REMARK SMILES IDX 15 1 16 2 17 3 18 4 19 5 20 6 21 7 22 8 23 9 24 10 25 11
REMARK SMILES IDX 26 12 27 13 28 14 29 15 30 16 14 17 13 18 12 19 11 20 10 21
REMARK SMILES IDX 9 22 8 23 7 24 6 25 5 26 4 27 3 28 2 29 1 30
REMARK H PARENT
REMARK Flexibility Score: inf
ROOT
ATOM      1  C   UNL     1      98.950 317.657 190.262  1.00  0.00     0.000 C 
ENDROOT
BRANCH   1   2
ATOM      2  C   UNL     1      99.893 318.147 189.152  1.00  0.00     0.000 C 
BRANCH   2   3
ATOM      3  C   UNL     1      99.988 317.163 187.973  1.00  0.00     0.000 C 
BRANCH   3   4
ATOM      4  C   UNL     1     101.083 316.102 188.173  1.00  0.00     0.000 C 
BRANCH   4   5
ATOM      5  C   UNL     1     100.666 314.723 187.631  1.00  0.00     0.000 C 
BRANCH   5   6
ATOM      6  C   UNL     1     101.862 313.779 187.419  1.00  0.00     0.000 C 
BRANCH   6   7
ATOM      7  C   UNL     1     103.133 314.528 186.978  1.00  0.00     0.000 C 
BRANCH   7   8
ATOM      8  C   UNL     1     104.301 314.333 187.959  1.00  0.00     0.000 C 
BRANCH   8   9
ATOM      9  C   UNL     1     104.388 312.892 188.489  1.00  0.00     0.000 C 
BRANCH   9  10
ATOM     10  C   UNL     1     104.480 312.870 190.020  1.00  0.00     0.000 C 
BRANCH  10  11
ATOM     11  C   UNL     1     103.677 314.028 190.633  1.00  0.00     0.000 C 
BRANCH  11  12
ATOM     12  C   UNL     1     102.333 313.574 191.228  1.00  0.00     0.006 C 
BRANCH  12  13
ATOM     13  C   UNL     1     101.331 314.714 191.471  1.00  0.00     0.053 C 
BRANCH  13  14
ATOM     14  C   UNL     1     101.629 315.465 192.731  1.00  0.00     0.041 C 
ATOM     15  O   UNL     1     101.173 316.627 192.900  1.00  0.00    -0.550 OA
ATOM     16  O   UNL     1     102.431 314.892 193.712  1.00  0.00    -0.550 OA
ENDBRANCH  13  14
ENDBRANCH  12  13
ENDBRANCH  11  12
ENDBRANCH  10  11
ENDBRANCH   9  10
ENDBRANCH   8   9
ENDBRANCH   7   8
ENDBRANCH   6   7
ENDBRANCH   5   6
ENDBRANCH   4   5
ENDBRANCH   3   4
ENDBRANCH   2   3
ENDBRANCH   1   2
BRANCH   1  17
ATOM     17  C   UNL     1      97.527 318.221 190.112  1.00  0.00     0.000 C 
BRANCH  17  18
ATOM     18  C   UNL     1      96.634 317.373 189.188  1.00  0.00     0.000 C 
BRANCH  18  19
ATOM     19  C   UNL     1      95.518 316.582 189.897  1.00  0.00     0.000 C 
BRANCH  19  20
ATOM     20  C   UNL     1      94.112 316.930 189.383  1.00  0.00     0.000 C 
BRANCH  20  21
ATOM     21  C   UNL     1      93.201 317.392 190.532  1.00  0.00     0.000 C 
BRANCH  21  22
ATOM     22  C   UNL     1      93.450 318.862 190.928  1.00  0.00    -0.000 C 
BRANCH  22  23
ATOM     23  C   UNL     1      94.061 319.038 192.329  1.00  0.00    -0.000 C 
BRANCH  23  24
ATOM     24  C   UNL     1      94.263 317.705 193.070  1.00  0.00    -0.000 C 
BRANCH  24  25
ATOM     25  C   UNL     1      94.994 317.874 194.410  1.00  0.00    -0.000 C 
BRANCH  25  26
ATOM     26  C   UNL     1      94.968 319.324 194.920  1.00  0.00    -0.000 C 
BRANCH  26  27
ATOM     27  C   UNL     1      94.003 319.512 196.102  1.00  0.00    -0.000 C 
BRANCH  27  28
ATOM     28  C   UNL     1      94.481 318.792 197.374  1.00  0.00    -0.000 C 
BRANCH  28  29
ATOM     29  C   UNL     1      93.339 318.070 198.106  1.00  0.00    -0.003 C 
ATOM     30  C   UNL     1      92.621 317.053 197.219  1.00  0.00     0.004 C 
ENDBRANCH  28  29
ENDBRANCH  27  28
ENDBRANCH  26  27
ENDBRANCH  25  26
ENDBRANCH  24  25
ENDBRANCH  23  24
ENDBRANCH  22  23
ENDBRANCH  21  22
ENDBRANCH  20  21
ENDBRANCH  19  20
ENDBRANCH  18  19
ENDBRANCH  17  18
ENDBRANCH   1  17
TORSDOF 26
ENDMDL
MODEL 3
REMARK VINA RESULT:    -4.518      1.973      3.383
REMARK INTER + INTRA:         -15.278
REMARK INTER:                 -11.450
REMARK INTRA:                  -3.828
REMARK UNBOUND:                -3.892
REMARK SMILES CCCCCCCCCCCCCCCCCCCCCCCCCCCC(=O)[O-]
REMARK SMILES IDX 15 1 16 2 17 3 18 4 19 5 20 6 21 7 22 8 23 9 24 10 25 11
REMARK SMILES IDX 26 12 27 13 28 14 29 15 30 16 14 17 13 18 12 19 11 20 10 21
REMARK SMILES IDX 9 22 8 23 7 24 6 25 5 26 4 27 3 28 2 29 1 30
REMARK H PARENT
REMARK Flexibility Score: inf
ROOT
ATOM      1  C   UNL     1     100.460 318.314 188.734  1.00  0.00     0.000 C 
ENDROOT
BRANCH   1   2
ATOM      2  C   UNL     1     100.536 317.275 187.605  1.00  0.00     0.000 C 
BRANCH   2   3
ATOM      3  C   UNL     1     101.068 315.912 188.083  1.00  0.00     0.000 C 
BRANCH   3   4
ATOM      4  C   UNL     1     101.113 314.865 186.959  1.00  0.00     0.000 C 
BRANCH   4   5
ATOM      5  C   UNL     1     102.466 314.134 186.896  1.00  0.00     0.000 C 
BRANCH   5   6
ATOM      6  C   UNL     1     103.474 314.651 187.937  1.00  0.00     0.000 C 
BRANCH   6   7
ATOM      7  C   UNL     1     104.268 313.513 188.604  1.00  0.00     0.000 C 
BRANCH   7   8
ATOM      8  C   UNL     1     104.212 313.578 190.140  1.00  0.00     0.000 C 
BRANCH   8   9
ATOM      9  C   UNL     1     102.837 313.172 190.696  1.00  0.00     0.000 C 
BRANCH   9  10
ATOM     10  C   UNL     1     102.359 314.161 191.766  1.00  0.00     0.000 C 
BRANCH  10  11
ATOM     11  C   UNL     1     101.524 315.287 191.137  1.00  0.00     0.000 C 
BRANCH  11  12
ATOM     12  C   UNL     1     100.273 315.636 191.962  1.00  0.00     0.006 C 
BRANCH  12  13
ATOM     13  C   UNL     1     100.117 317.134 192.271  1.00  0.00     0.053 C 
BRANCH  13  14
ATOM     14  C   UNL     1     100.498 317.460 193.682  1.00  0.00     0.041 C 
ATOM     15  O   UNL     1     101.704 317.415 194.040  1.00  0.00    -0.550 OA
ATOM     16  O   UNL     1      99.517 317.790 194.610  1.00  0.00    -0.550 OA
ENDBRANCH  13  14
ENDBRANCH  12  13
ENDBRANCH  11  12
ENDBRANCH  10  11
ENDBRANCH   9  10
ENDBRANCH   8   9
ENDBRANCH   7   8
ENDBRANCH   6   7
ENDBRANCH   5   6
ENDBRANCH   4   5
ENDBRANCH   3   4
ENDBRANCH   2   3
ENDBRANCH   1   2
BRANCH   1  17
ATOM     17  C   UNL     1      99.027 318.822 188.966  1.00  0.00     0.000 C 
BRANCH  17  18
ATOM     18  C   UNL     1      97.998 318.184 188.016  1.00  0.00     0.000 C 
BRANCH  18  19
ATOM     19  C   UNL     1      96.817 317.476 188.706  1.00  0.00     0.000 C 
BRANCH  19  20
ATOM     20  C   UNL     1      97.246 316.259 189.541  1.00  0.00     0.000 C 
BRANCH  20  21
ATOM     21  C   UNL     1      96.717 316.360 190.981  1.00  0.00     0.000 C 
BRANCH  21  22
ATOM     22  C   UNL     1      96.563 317.820 191.452  1.00  0.00    -0.000 C 
BRANCH  22  23
ATOM     23  C   UNL     1      95.838 317.969 192.801  1.00  0.00    -0.000 C 
BRANCH  23  24
ATOM     24  C   UNL     1      94.306 317.998 192.662  1.00  0.00    -0.000 C 
BRANCH  24  25
ATOM     25  C   UNL     1      93.812 319.138 191.758  1.00  0.00    -0.000 C 
BRANCH  25  26
ATOM     26  C   UNL     1      92.931 318.636 190.602  1.00  0.00    -0.000 C 
BRANCH  26  27
ATOM     27  C   UNL     1      92.840 317.101 190.560  1.00  0.00    -0.000 C 
BRANCH  27  28
ATOM     28  C   UNL     1      92.508 316.569 189.155  1.00  0.00    -0.000 C 
BRANCH  28  29
ATOM     29  C   UNL     1      91.116 315.922 189.086  1.00  0.00    -0.003 C 
ATOM     30  C   UNL     1      90.032 316.902 188.635  1.00  0.00     0.004 C 
ENDBRANCH  28  29
ENDBRANCH  27  28
ENDBRANCH  26  27
ENDBRANCH  25  26
ENDBRANCH  24  25
ENDBRANCH  23  24
ENDBRANCH  22  23
ENDBRANCH  21  22
ENDBRANCH  20  21
ENDBRANCH  19  20
ENDBRANCH  18  19
ENDBRANCH  17  18
ENDBRANCH   1  17
TORSDOF 26
ENDMDL
MODEL 4
REMARK VINA RESULT:    -4.444      1.933      3.419
REMARK INTER + INTRA:         -15.090
REMARK INTER:                 -11.251
REMARK INTRA:                  -3.839
REMARK UNBOUND:                -3.892
REMARK SMILES CCCCCCCCCCCCCCCCCCCCCCCCCCCC(=O)[O-]
REMARK SMILES IDX 15 1 16 2 17 3 18 4 19 5 20 6 21 7 22 8 23 9 24 10 25 11
REMARK SMILES IDX 26 12 27 13 28 14 29 15 30 16 14 17 13 18 12 19 11 20 10 21
REMARK SMILES IDX 9 22 8 23 7 24 6 25 5 26 4 27 3 28 2 29 1 30
REMARK H PARENT
REMARK Flexibility Score: inf
ROOT
ATOM      1  C   UNL     1     100.136 318.609 188.884  1.00  0.00     0.000 C 
ENDROOT
BRANCH   1   2
ATOM      2  C   UNL     1     100.361 317.562 187.783  1.00  0.00     0.000 C 
BRANCH   2   3
ATOM      3  C   UNL     1     101.019 316.275 188.310  1.00  0.00     0.000 C 
BRANCH   3   4
ATOM      4  C   UNL     1     100.839 315.083 187.356  1.00  0.00     0.000 C 
BRANCH   4   5
ATOM      5  C   UNL     1     102.081 314.174 187.316  1.00  0.00     0.000 C 
BRANCH   5   6
ATOM      6  C   UNL     1     103.329 314.843 187.916  1.00  0.00     0.000 C 
BRANCH   6   7
ATOM      7  C   UNL     1     104.163 313.872 188.773  1.00  0.00     0.000 C 
BRANCH   7   8
ATOM      8  C   UNL     1     104.249 314.311 190.244  1.00  0.00     0.000 C 
BRANCH   8   9
ATOM      9  C   UNL     1     102.875 314.323 190.935  1.00  0.00     0.000 C 
BRANCH   9  10
ATOM     10  C   UNL     1     102.262 312.918 190.974  1.00  0.00     0.000 C 
BRANCH  10  11
ATOM     11  C   UNL     1     100.853 312.952 191.583  1.00  0.00     0.000 C 
BRANCH  11  12
ATOM     12  C   UNL     1      99.790 313.481 190.604  1.00  0.00     0.006 C 
BRANCH  12  13
ATOM     13  C   UNL     1      98.597 312.535 190.393  1.00  0.00     0.053 C 
BRANCH  13  14
ATOM     14  C   UNL     1      98.531 312.018 188.989  1.00  0.00     0.041 C 
ATOM     15  O   UNL     1      98.365 312.813 188.028  1.00  0.00    -0.550 OA
ATOM     16  O   UNL     1      98.631 310.653 188.744  1.00  0.00    -0.550 OA
ENDBRANCH  13  14
ENDBRANCH  12  13
ENDBRANCH  11  12
ENDBRANCH  10  11
ENDBRANCH   9  10
ENDBRANCH   8   9
ENDBRANCH   7   8
ENDBRANCH   6   7
ENDBRANCH   5   6
ENDBRANCH   4   5
ENDBRANCH   3   4
ENDBRANCH   2   3
ENDBRANCH   1   2
BRANCH   1  17
ATOM     17  C   UNL     1      98.650 318.970 189.055  1.00  0.00     0.000 C 
BRANCH  17  18
ATOM     18  C   UNL     1      97.720 318.147 188.145  1.00  0.00     0.000 C 
BRANCH  18  19
ATOM     19  C   UNL     1      96.707 317.250 188.879  1.00  0.00     0.000 C 
BRANCH  19  20
ATOM     20  C   UNL     1      97.370 316.248 189.837  1.00  0.00     0.000 C 
BRANCH  20  21
ATOM     21  C   UNL     1      96.717 316.295 191.228  1.00  0.00     0.000 C 
BRANCH  21  22
ATOM     22  C   UNL     1      96.657 317.725 191.804  1.00  0.00    -0.000 C 
BRANCH  22  23
ATOM     23  C   UNL     1      95.773 317.858 193.057  1.00  0.00    -0.000 C 
BRANCH  23  24
ATOM     24  C   UNL     1      94.272 317.926 192.730  1.00  0.00    -0.000 C 
BRANCH  24  25
ATOM     25  C   UNL     1      93.908 319.134 191.853  1.00  0.00    -0.000 C 
BRANCH  25  26
ATOM     26  C   UNL     1      93.001 318.754 190.671  1.00  0.00    -0.000 C 
BRANCH  26  27
ATOM     27  C   UNL     1      93.297 317.343 190.136  1.00  0.00    -0.000 C 
BRANCH  27  28
ATOM     28  C   UNL     1      92.018 316.518 189.909  1.00  0.00    -0.000 C 
BRANCH  28  29
ATOM     29  C   UNL     1      91.091 317.150 188.859  1.00  0.00    -0.003 C 
ATOM     30  C   UNL     1      90.786 316.204 187.697  1.00  0.00     0.004 C 
ENDBRANCH  28  29
ENDBRANCH  27  28
ENDBRANCH  26  27
ENDBRANCH  25  26
ENDBRANCH  24  25
ENDBRANCH  23  24
ENDBRANCH  22  23
ENDBRANCH  21  22
ENDBRANCH  20  21
ENDBRANCH  19  20
ENDBRANCH  18  19
ENDBRANCH  17  18
ENDBRANCH   1  17
TORSDOF 26
ENDMDL
MODEL 5
REMARK VINA RESULT:    -4.407      2.110      7.913
REMARK INTER + INTRA:         -14.998
REMARK INTER:                 -11.112
REMARK INTRA:                  -3.887
REMARK UNBOUND:                -3.892
REMARK SMILES CCCCCCCCCCCCCCCCCCCCCCCCCCCC(=O)[O-]
REMARK SMILES IDX 15 1 16 2 17 3 18 4 19 5 20 6 21 7 22 8 23 9 24 10 25 11
REMARK SMILES IDX 26 12 27 13 28 14 29 15 30 16 14 17 13 18 12 19 11 20 10 21
REMARK SMILES IDX 9 22 8 23 7 24 6 25 5 26 4 27 3 28 2 29 1 30
REMARK H PARENT
REMARK Flexibility Score: inf
ROOT
ATOM      1  C   UNL     1      98.873 317.349 191.494  1.00  0.00     0.000 C 
ENDROOT
BRANCH   1   2
ATOM      2  C   UNL     1      98.661 315.928 190.949  1.00  0.00     0.000 C 
BRANCH   2   3
ATOM      3  C   UNL     1      97.269 315.364 191.283  1.00  0.00     0.000 C 
BRANCH   3   4
ATOM      4  C   UNL     1      96.622 314.640 190.092  1.00  0.00     0.000 C 
BRANCH   4   5
ATOM      5  C   UNL     1      96.434 315.565 188.876  1.00  0.00     0.000 C 
BRANCH   5   6
ATOM      6  C   UNL     1      95.295 316.580 189.069  1.00  0.00     0.000 C 
BRANCH   6   7
ATOM      7  C   UNL     1      94.003 316.160 188.344  1.00  0.00     0.000 C 
BRANCH   7   8
ATOM      8  C   UNL     1      92.748 316.798 188.961  1.00  0.00     0.000 C 
BRANCH   8   9
ATOM      9  C   UNL     1      92.940 317.158 190.444  1.00  0.00     0.000 C 
BRANCH   9  10
ATOM     10  C   UNL     1      92.930 318.677 190.651  1.00  0.00     0.000 C 
BRANCH  10  11
ATOM     11  C   UNL     1      93.733 319.064 191.903  1.00  0.00     0.000 C 
BRANCH  11  12
ATOM     12  C   UNL     1      94.436 317.862 192.557  1.00  0.00     0.006 C 
BRANCH  12  13
ATOM     13  C   UNL     1      95.765 318.206 193.247  1.00  0.00     0.053 C 
BRANCH  13  14
ATOM     14  C   UNL     1      95.567 318.638 194.667  1.00  0.00     0.041 C 
ATOM     15  O   UNL     1      96.448 319.322 195.250  1.00  0.00    -0.550 OA
ATOM     16  O   UNL     1      94.417 318.267 195.355  1.00  0.00    -0.550 OA
ENDBRANCH  13  14
ENDBRANCH  12  13
ENDBRANCH  11  12
ENDBRANCH  10  11
ENDBRANCH   9  10
ENDBRANCH   8   9
ENDBRANCH   7   8
ENDBRANCH   6   7
ENDBRANCH   5   6
ENDBRANCH   4   5
ENDBRANCH   3   4
ENDBRANCH   2   3
ENDBRANCH   1   2
BRANCH   1  17
ATOM     17  C   UNL     1      99.661 318.239 190.518  1.00  0.00     0.000 C 
BRANCH  17  18
ATOM     18  C   UNL     1      99.089 318.224 189.089  1.00  0.00     0.000 C 
BRANCH  18  19
ATOM     19  C   UNL     1     100.117 317.977 187.970  1.00  0.00     0.000 C 
BRANCH  19  20
ATOM     20  C   UNL     1     100.197 316.504 187.538  1.00  0.00     0.000 C 
BRANCH  20  21
ATOM     21  C   UNL     1     101.356 315.781 188.241  1.00  0.00     0.000 C 
BRANCH  21  22
ATOM     22  C   UNL     1     101.775 314.488 187.512  1.00  0.00    -0.000 C 
BRANCH  22  23
ATOM     23  C   UNL     1     103.203 314.527 186.939  1.00  0.00    -0.000 C 
BRANCH  23  24
ATOM     24  C   UNL     1     104.184 313.623 187.706  1.00  0.00    -0.000 C 
BRANCH  24  25
ATOM     25  C   UNL     1     104.395 314.073 189.160  1.00  0.00    -0.000 C 
BRANCH  25  26
ATOM     26  C   UNL     1     104.181 312.932 190.169  1.00  0.00    -0.000 C 
BRANCH  26  27
ATOM     27  C   UNL     1     102.837 313.049 190.907  1.00  0.00    -0.000 C 
BRANCH  27  28
ATOM     28  C   UNL     1     102.563 314.476 191.411  1.00  0.00    -0.000 C 
BRANCH  28  29
ATOM     29  C   UNL     1     101.814 314.490 192.753  1.00  0.00    -0.003 C 
ATOM     30  C   UNL     1     101.780 315.878 193.394  1.00  0.00     0.004 C 
ENDBRANCH  28  29
ENDBRANCH  27  28
ENDBRANCH  26  27
ENDBRANCH  25  26
ENDBRANCH  24  25
ENDBRANCH  23  24
ENDBRANCH  22  23
ENDBRANCH  21  22
ENDBRANCH  20  21
ENDBRANCH  19  20
ENDBRANCH  18  19
ENDBRANCH  17  18
ENDBRANCH   1  17
TORSDOF 26
ENDMDL
MODEL 6
REMARK VINA RESULT:    -4.407      4.052      6.589
REMARK INTER + INTRA:         -14.997
REMARK INTER:                 -11.453
REMARK INTRA:                  -3.544
REMARK UNBOUND:                -3.892
REMARK SMILES CCCCCCCCCCCCCCCCCCCCCCCCCCCC(=O)[O-]
REMARK SMILES IDX 15 1 16 2 17 3 18 4 19 5 20 6 21 7 22 8 23 9 24 10 25 11
REMARK SMILES IDX 26 12 27 13 28 14 29 15 30 16 14 17 13 18 12 19 11 20 10 21
REMARK SMILES IDX 9 22 8 23 7 24 6 25 5 26 4 27 3 28 2 29 1 30
REMARK H PARENT
REMARK Flexibility Score: inf
ROOT
ATOM      1  C   UNL     1     101.703 314.056 191.590  1.00  0.00     0.000 C 
ENDROOT
BRANCH   1   2
ATOM      2  C   UNL     1     102.520 313.012 190.814  1.00  0.00     0.000 C 
BRANCH   2   3
ATOM      3  C   UNL     1     103.967 313.464 190.550  1.00  0.00     0.000 C 
BRANCH   3   4
ATOM      4  C   UNL     1     104.764 312.446 189.719  1.00  0.00     0.000 C 
BRANCH   4   5
ATOM      5  C   UNL     1     104.337 312.435 188.240  1.00  0.00     0.000 C 
BRANCH   5   6
ATOM      6  C   UNL     1     104.282 313.843 187.624  1.00  0.00     0.000 C 
BRANCH   6   7
ATOM      7  C   UNL     1     102.951 314.118 186.900  1.00  0.00     0.000 C 
BRANCH   7   8
ATOM      8  C   UNL     1     101.969 314.930 187.760  1.00  0.00     0.000 C 
BRANCH   8   9
ATOM      9  C   UNL     1     100.767 315.447 186.952  1.00  0.00     0.000 C 
BRANCH   9  10
ATOM     10  C   UNL     1      99.897 316.387 187.793  1.00  0.00     0.000 C 
BRANCH  10  11
ATOM     11  C   UNL     1     100.687 316.941 188.989  1.00  0.00     0.000 C 
BRANCH  11  12
ATOM     12  C   UNL     1      99.823 317.797 189.932  1.00  0.00     0.006 C 
BRANCH  12  13
ATOM     13  C   UNL     1      98.432 318.141 189.376  1.00  0.00     0.053 C 
BRANCH  13  14
ATOM     14  C   UNL     1      97.332 317.599 190.235  1.00  0.00     0.041 C 
ATOM     15  O   UNL     1      96.401 318.352 190.623  1.00  0.00    -0.550 OA
ATOM     16  O   UNL     1      97.348 316.266 190.628  1.00  0.00    -0.550 OA
ENDBRANCH  13  14
ENDBRANCH  12  13
ENDBRANCH  11  12
ENDBRANCH  10  11
ENDBRANCH   9  10
ENDBRANCH   8   9
ENDBRANCH   7   8
ENDBRANCH   6   7
ENDBRANCH   5   6
ENDBRANCH   4   5
ENDBRANCH   3   4
ENDBRANCH   2   3
ENDBRANCH   1   2
BRANCH   1  17
ATOM     17  C   UNL     1     100.192 313.929 191.330  1.00  0.00     0.000 C 
BRANCH  17  18
ATOM     18  C   UNL     1      99.856 312.968 190.175  1.00  0.00     0.000 C 
BRANCH  18  19
ATOM     19  C   UNL     1      98.614 313.344 189.347  1.00  0.00     0.000 C 
BRANCH  19  20
ATOM     20  C   UNL     1      98.586 312.676 187.963  1.00  0.00     0.000 C 
BRANCH  20  21
ATOM     21  C   UNL     1      99.503 311.443 187.923  1.00  0.00     0.000 C 
BRANCH  21  22
ATOM     22  C   UNL     1      98.731 310.143 187.619  1.00  0.00    -0.000 C 
BRANCH  22  23
ATOM     23  C   UNL     1      97.226 310.222 187.928  1.00  0.00    -0.000 C 
BRANCH  23  24
ATOM     24  C   UNL     1      96.495 308.886 187.710  1.00  0.00    -0.000 C 
BRANCH  24  25
ATOM     25  C   UNL     1      96.477 308.005 188.969  1.00  0.00    -0.000 C 
BRANCH  25  26
ATOM     26  C   UNL     1      95.524 308.539 190.051  1.00  0.00    -0.000 C 
BRANCH  26  27
ATOM     27  C   UNL     1      94.379 307.559 190.357  1.00  0.00    -0.000 C 
BRANCH  27  28
ATOM     28  C   UNL     1      93.888 307.661 191.811  1.00  0.00    -0.000 C 
BRANCH  28  29
ATOM     29  C   UNL     1      94.794 306.900 192.791  1.00  0.00    -0.003 C 
ATOM     30  C   UNL     1      94.268 306.932 194.226  1.00  0.00     0.004 C 
ENDBRANCH  28  29
ENDBRANCH  27  28
ENDBRANCH  26  27
ENDBRANCH  25  26
ENDBRANCH  24  25
ENDBRANCH  23  24
ENDBRANCH  22  23
ENDBRANCH  21  22
ENDBRANCH  20  21
ENDBRANCH  19  20
ENDBRANCH  18  19
ENDBRANCH  17  18
ENDBRANCH   1  17
TORSDOF 26
ENDMDL
MODEL 7
REMARK VINA RESULT:    -4.380      1.644      4.330
REMARK INTER + INTRA:         -14.929
REMARK INTER:                 -10.320
REMARK INTRA:                  -4.608
REMARK UNBOUND:                -3.892
REMARK SMILES CCCCCCCCCCCCCCCCCCCCCCCCCCCC(=O)[O-]
REMARK SMILES IDX 15 1 16 2 17 3 18 4 19 5 20 6 21 7 22 8 23 9 24 10 25 11
REMARK SMILES IDX 26 12 27 13 28 14 29 15 30 16 14 17 13 18 12 19 11 20 10 21
REMARK SMILES IDX 9 22 8 23 7 24 6 25 5 26 4 27 3 28 2 29 1 30
REMARK H PARENT
REMARK Flexibility Score: inf
ROOT
ATOM      1  C   UNL     1      99.098 318.085 190.247  1.00  0.00     0.000 C 
ENDROOT
BRANCH   1   2
ATOM      2  C   UNL     1      99.694 318.838 189.047  1.00  0.00     0.000 C 
BRANCH   2   3
ATOM      3  C   UNL     1     100.384 317.903 188.039  1.00  0.00     0.000 C 
BRANCH   3   4
ATOM      4  C   UNL     1     100.954 316.637 188.699  1.00  0.00     0.000 C 
BRANCH   4   5
ATOM      5  C   UNL     1     100.444 315.348 188.029  1.00  0.00     0.000 C 
BRANCH   5   6
ATOM      6  C   UNL     1     101.357 314.866 186.890  1.00  0.00     0.000 C 
BRANCH   6   7
ATOM      7  C   UNL     1     102.488 313.949 187.389  1.00  0.00     0.000 C 
BRANCH   7   8
ATOM      8  C   UNL     1     103.843 314.672 187.465  1.00  0.00     0.000 C 
BRANCH   8   9
ATOM      9  C   UNL     1     104.418 314.696 188.891  1.00  0.00     0.000 C 
BRANCH   9  10
ATOM     10  C   UNL     1     103.738 313.648 189.780  1.00  0.00     0.000 C 
BRANCH  10  11
ATOM     11  C   UNL     1     103.029 314.316 190.968  1.00  0.00     0.000 C 
BRANCH  11  12
ATOM     12  C   UNL     1     101.625 313.739 191.227  1.00  0.00     0.006 C 
BRANCH  12  13
ATOM     13  C   UNL     1     100.636 314.739 191.846  1.00  0.00     0.053 C 
BRANCH  13  14
ATOM     14  C   UNL     1     101.183 315.379 193.084  1.00  0.00     0.041 C 
ATOM     15  O   UNL     1     101.442 314.679 194.098  1.00  0.00    -0.550 OA
ATOM     16  O   UNL     1     101.386 316.754 193.127  1.00  0.00    -0.550 OA
ENDBRANCH  13  14
ENDBRANCH  12  13
ENDBRANCH  11  12
ENDBRANCH  10  11
ENDBRANCH   9  10
ENDBRANCH   8   9
ENDBRANCH   7   8
ENDBRANCH   6   7
ENDBRANCH   5   6
ENDBRANCH   4   5
ENDBRANCH   3   4
ENDBRANCH   2   3
ENDBRANCH   1   2
BRANCH   1  17
ATOM     17  C   UNL     1      97.564 318.189 190.300  1.00  0.00     0.000 C 
BRANCH  17  18
ATOM     18  C   UNL     1      96.872 317.564 189.075  1.00  0.00     0.000 C 
BRANCH  18  19
ATOM     19  C   UNL     1      96.423 316.101 189.248  1.00  0.00     0.000 C 
BRANCH  19  20
ATOM     20  C   UNL     1      95.209 315.949 190.177  1.00  0.00     0.000 C 
BRANCH  20  21
ATOM     21  C   UNL     1      94.038 316.828 189.710  1.00  0.00     0.000 C 
BRANCH  21  22
ATOM     22  C   UNL     1      93.281 317.478 190.886  1.00  0.00    -0.000 C 
BRANCH  22  23
ATOM     23  C   UNL     1      93.573 318.977 191.067  1.00  0.00    -0.000 C 
BRANCH  23  24
ATOM     24  C   UNL     1      94.016 319.337 192.496  1.00  0.00    -0.000 C 
BRANCH  24  25
ATOM     25  C   UNL     1      94.489 318.114 193.298  1.00  0.00    -0.000 C 
BRANCH  25  26
ATOM     26  C   UNL     1      95.869 318.327 193.942  1.00  0.00    -0.000 C 
BRANCH  26  27
ATOM     27  C   UNL     1      96.859 317.205 193.587  1.00  0.00    -0.000 C 
BRANCH  27  28
ATOM     28  C   UNL     1      96.219 315.808 193.660  1.00  0.00    -0.000 C 
BRANCH  28  29
ATOM     29  C   UNL     1      97.149 314.707 193.128  1.00  0.00    -0.003 C 
ATOM     30  C   UNL     1      97.888 313.969 194.244  1.00  0.00     0.004 C 
ENDBRANCH  28  29
ENDBRANCH  27  28
ENDBRANCH  26  27
ENDBRANCH  25  26
ENDBRANCH  24  25
ENDBRANCH  23  24
ENDBRANCH  22  23
ENDBRANCH  21  22
ENDBRANCH  20  21
ENDBRANCH  19  20
ENDBRANCH  18  19
ENDBRANCH  17  18
ENDBRANCH   1  17
TORSDOF 26
ENDMDL
MODEL 8
REMARK VINA RESULT:    -4.326      7.255     10.501
REMARK INTER + INTRA:         -14.794
REMARK INTER:                  -9.821
REMARK INTRA:                  -4.973
REMARK UNBOUND:                -3.892
REMARK SMILES CCCCCCCCCCCCCCCCCCCCCCCCCCCC(=O)[O-]
REMARK SMILES IDX 15 1 16 2 17 3 18 4 19 5 20 6 21 7 22 8 23 9 24 10 25 11
REMARK SMILES IDX 26 12 27 13 28 14 29 15 30 16 14 17 13 18 12 19 11 20 10 21
REMARK SMILES IDX 9 22 8 23 7 24 6 25 5 26 4 27 3 28 2 29 1 30
REMARK H PARENT
REMARK Flexibility Score: inf
ROOT
ATOM      1  C   UNL     1      88.664 308.077 191.214  1.00  0.00     0.000 C 
ENDROOT
BRANCH   1   2
ATOM      2  C   UNL     1      90.100 308.153 191.756  1.00  0.00     0.000 C 
BRANCH   2   3
ATOM      3  C   UNL     1      91.161 307.957 190.660  1.00  0.00     0.000 C 
BRANCH   3   4
ATOM      4  C   UNL     1      91.786 309.283 190.195  1.00  0.00     0.000 C 
BRANCH   4   5
ATOM      5  C   UNL     1      92.036 309.311 188.677  1.00  0.00     0.000 C 
BRANCH   5   6
ATOM      6  C   UNL     1      93.035 310.401 188.256  1.00  0.00     0.000 C 
BRANCH   6   7
ATOM      7  C   UNL     1      94.280 310.440 189.162  1.00  0.00     0.000 C 
BRANCH   7   8
ATOM      8  C   UNL     1      95.514 309.810 188.494  1.00  0.00     0.000 C 
BRANCH   8   9
ATOM      9  C   UNL     1      96.006 308.555 189.233  1.00  0.00     0.000 C 
BRANCH   9  10
ATOM     10  C   UNL     1      95.401 308.467 190.639  1.00  0.00     0.000 C 
BRANCH  10  11
ATOM     11  C   UNL     1      95.053 307.014 190.995  1.00  0.00     0.000 C 
BRANCH  11  12
ATOM     12  C   UNL     1      94.651 306.840 192.471  1.00  0.00     0.006 C 
BRANCH  12  13
ATOM     13  C   UNL     1      94.597 308.152 193.270  1.00  0.00     0.053 C 
BRANCH  13  14
ATOM     14  C   UNL     1      93.214 308.461 193.751  1.00  0.00     0.041 C 
ATOM     15  O   UNL     1      92.747 309.625 193.634  1.00  0.00    -0.550 OA
ATOM     16  O   UNL     1      92.446 307.469 194.349  1.00  0.00    -0.550 OA
ENDBRANCH  13  14
ENDBRANCH  12  13
ENDBRANCH  11  12
ENDBRANCH  10  11
ENDBRANCH   9  10
ENDBRANCH   8   9
ENDBRANCH   7   8
ENDBRANCH   6   7
ENDBRANCH   5   6
ENDBRANCH   4   5
ENDBRANCH   3   4
ENDBRANCH   2   3
ENDBRANCH   1   2
BRANCH   1  17
ATOM     17  C   UNL     1      88.589 307.368 189.851  1.00  0.00     0.000 C 
BRANCH  17  18
ATOM     18  C   UNL     1      87.714 308.114 188.828  1.00  0.00     0.000 C 
BRANCH  18  19
ATOM     19  C   UNL     1      88.484 308.946 187.786  1.00  0.00     0.000 C 
BRANCH  19  20
ATOM     20  C   UNL     1      88.396 310.460 188.037  1.00  0.00     0.000 C 
BRANCH  20  21
ATOM     21  C   UNL     1      86.936 310.940 188.030  1.00  0.00     0.000 C 
BRANCH  21  22
ATOM     22  C   UNL     1      86.617 311.879 189.211  1.00  0.00    -0.000 C 
BRANCH  22  23
ATOM     23  C   UNL     1      86.506 311.162 190.568  1.00  0.00    -0.000 C 
BRANCH  23  24
ATOM     24  C   UNL     1      87.624 311.553 191.550  1.00  0.00    -0.000 C 
BRANCH  24  25
ATOM     25  C   UNL     1      87.699 313.068 191.793  1.00  0.00    -0.000 C 
BRANCH  25  26
ATOM     26  C   UNL     1      88.981 313.696 191.221  1.00  0.00    -0.000 C 
BRANCH  26  27
ATOM     27  C   UNL     1      89.987 312.636 190.740  1.00  0.00    -0.000 C 
BRANCH  27  28
ATOM     28  C   UNL     1      91.134 313.244 189.916  1.00  0.00    -0.000 C 
BRANCH  28  29
ATOM     29  C   UNL     1      91.942 314.282 190.710  1.00  0.00    -0.003 C 
ATOM     30  C   UNL     1      92.211 315.557 189.910  1.00  0.00     0.004 C 
ENDBRANCH  28  29
ENDBRANCH  27  28
ENDBRANCH  26  27
ENDBRANCH  25  26
ENDBRANCH  24  25
ENDBRANCH  23  24
ENDBRANCH  22  23
ENDBRANCH  21  22
ENDBRANCH  20  21
ENDBRANCH  19  20
ENDBRANCH  18  19
ENDBRANCH  17  18
ENDBRANCH   1  17
TORSDOF 26
ENDMDL
