MODEL 1
REMARK VINA RESULT:    -3.364      0.000      0.000
REMARK INTER + INTRA:         -10.559
REMARK INTER:                  -7.297
REMARK INTRA:                  -3.262
REMARK UNBOUND:                -3.262
REMARK SMILES CCCCCCCCCCCCCCCCCCCCCC(=O)[O-]
REMARK SMILES IDX 12 1 11 2 10 3 9 4 8 5 7 6 6 7 5 8 4 9 3 10 2 11 1 12 13 13
REMARK SMILES IDX 14 14 15 15 16 16 17 17 18 18 19 19 20 20 21 21 22 22 23 23
REMARK SMILES IDX 24 24
REMARK H PARENT
REMARK Flexibility Score: inf
ROOT
ATOM      1  C   UNL     1       3.332 105.119 179.623  1.00  0.00     0.000 C 
ENDROOT
BRANCH   1   2
ATOM      2  C   UNL     1       3.470 106.187 180.722  1.00  0.00     0.000 C 
BRANCH   2   3
ATOM      3  C   UNL     1       2.722 107.488 180.384  1.00  0.00     0.000 C 
BRANCH   3   4
ATOM      4  C   UNL     1       2.775 108.524 181.522  1.00  0.00    -0.000 C 
BRANCH   4   5
ATOM      5  C   UNL     1       3.619 108.118 182.749  1.00  0.00    -0.000 C 
BRANCH   5   6
ATOM      6  C   UNL     1       4.822 109.031 183.052  1.00  0.00    -0.000 C 
BRANCH   6   7
ATOM      7  C   UNL     1       6.025 108.260 183.622  1.00  0.00    -0.000 C 
BRANCH   7   8
ATOM      8  C   UNL     1       5.889 106.737 183.457  1.00  0.00    -0.000 C 
BRANCH   8   9
ATOM      9  C   UNL     1       7.089 106.081 182.741  1.00  0.00    -0.000 C 
BRANCH   9  10
ATOM     10  C   UNL     1       6.823 105.881 181.239  1.00  0.00    -0.000 C 
BRANCH  10  11
ATOM     11  C   UNL     1       7.443 106.988 180.374  1.00  0.00    -0.003 C 
ATOM     12  C   UNL     1       6.393 107.863 179.689  1.00  0.00     0.004 C 
ENDBRANCH  10  11
ENDBRANCH   9  10
ENDBRANCH   8   9
ENDBRANCH   7   8
ENDBRANCH   6   7
ENDBRANCH   5   6
ENDBRANCH   4   5
ENDBRANCH   3   4
ENDBRANCH   2   3
ENDBRANCH   1   2
BRANCH   1  13
ATOM     13  C   UNL     1       1.970 105.094 178.900  1.00  0.00     0.000 C 
BRANCH  13  14
ATOM     14  C   UNL     1       2.035 104.838 177.383  1.00  0.00     0.000 C 
BRANCH  14  15
ATOM     15  C   UNL     1       3.050 105.746 176.668  1.00  0.00     0.000 C 
BRANCH  15  16
ATOM     16  C   UNL     1       4.154 104.955 175.941  1.00  0.00     0.000 C 
BRANCH  16  17
ATOM     17  C   UNL     1       5.572 105.133 176.514  1.00  0.00     0.000 C 
BRANCH  17  18
ATOM     18  C   UNL     1       6.131 103.919 177.283  1.00  0.00     0.000 C 
BRANCH  18  19
ATOM     19  C   UNL     1       5.360 102.607 177.030  1.00  0.00     0.000 C 
BRANCH  19  20
ATOM     20  C   UNL     1       6.051 101.699 175.997  1.00  0.00     0.006 C 
BRANCH  20  21
ATOM     21  C   UNL     1       5.182 101.470 174.752  1.00  0.00     0.053 C 
BRANCH  21  22
ATOM     22  C   UNL     1       5.541 102.407 173.640  1.00  0.00     0.041 C 
ATOM     23  O   UNL     1       6.585 103.108 173.712  1.00  0.00    -0.550 OA
ATOM     24  O   UNL     1       4.701 102.538 172.541  1.00  0.00    -0.550 OA
ENDBRANCH  21  22
ENDBRANCH  20  21
ENDBRANCH  19  20
ENDBRANCH  18  19
ENDBRANCH  17  18
ENDBRANCH  16  17
ENDBRANCH  15  16
ENDBRANCH  14  15
ENDBRANCH  13  14
ENDBRANCH   1  13
TORSDOF 20
ENDMDL
MODEL 2
REMARK VINA RESULT:    -3.315      5.874     10.086
REMARK INTER + INTRA:         -10.454
REMARK INTER:                  -7.744
REMARK INTRA:                  -2.710
REMARK UNBOUND:                -3.262
REMARK SMILES CCCCCCCCCCCCCCCCCCCCCC(=O)[O-]
REMARK SMILES IDX 12 1 11 2 10 3 9 4 8 5 7 6 6 7 5 8 4 9 3 10 2 11 1 12 13 13
REMARK SMILES IDX 14 14 15 15 16 16 17 17 18 18 19 19 20 20 21 21 22 22 23 23
REMARK SMILES IDX 24 24
REMARK H PARENT
REMARK Flexibility Score: inf
ROOT
ATOM      1  C   UNL     1       3.649 106.656 181.732  1.00  0.00     0.000 C 
ENDROOT
BRANCH   1   2
ATOM      2  C   UNL     1       4.217 105.856 180.546  1.00  0.00     0.000 C 
BRANCH   2   3
ATOM      3  C   UNL     1       3.130 105.097 179.766  1.00  0.00     0.000 C 
BRANCH   3   4
ATOM      4  C   UNL     1       3.600 104.638 178.374  1.00  0.00    -0.000 C 
BRANCH   4   5
ATOM      5  C   UNL     1       2.627 104.934 177.213  1.00  0.00    -0.000 C 
BRANCH   5   6
ATOM      6  C   UNL     1       1.135 104.948 177.592  1.00  0.00    -0.000 C 
BRANCH   6   7
ATOM      7  C   UNL     1       0.508 106.350 177.494  1.00  0.00    -0.000 C 
BRANCH   7   8
ATOM      8  C   UNL     1       0.091 106.912 178.864  1.00  0.00    -0.000 C 
BRANCH   8   9
ATOM      9  C   UNL     1       1.024 108.026 179.386  1.00  0.00    -0.000 C 
BRANCH   9  10
ATOM     10  C   UNL     1       1.928 108.587 178.274  1.00  0.00    -0.000 C 
BRANCH  10  11
ATOM     11  C   UNL     1       3.367 108.834 178.748  1.00  0.00    -0.003 C 
ATOM     12  C   UNL     1       4.412 108.235 177.808  1.00  0.00     0.004 C 
ENDBRANCH  10  11
ENDBRANCH   9  10
ENDBRANCH   8   9
ENDBRANCH   7   8
ENDBRANCH   6   7
ENDBRANCH   5   6
ENDBRANCH   4   5
ENDBRANCH   3   4
ENDBRANCH   2   3
ENDBRANCH   1   2
BRANCH   1  13
ATOM     13  C   UNL     1       4.704 107.336 182.629  1.00  0.00     0.000 C 
BRANCH  13  14
ATOM     14  C   UNL     1       4.576 108.866 182.752  1.00  0.00     0.000 C 
BRANCH  14  15
ATOM     15  C   UNL     1       3.136 109.362 182.543  1.00  0.00     0.000 C 
BRANCH  15  16
ATOM     16  C   UNL     1       2.853 110.698 183.256  1.00  0.00     0.000 C 
BRANCH  16  17
ATOM     17  C   UNL     1       4.021 111.702 183.254  1.00  0.00     0.000 C 
BRANCH  17  18
ATOM     18  C   UNL     1       4.299 112.395 184.602  1.00  0.00     0.000 C 
BRANCH  18  19
ATOM     19  C   UNL     1       3.393 113.613 184.880  1.00  0.00     0.000 C 
BRANCH  19  20
ATOM     20  C   UNL     1       3.923 114.908 184.240  1.00  0.00     0.006 C 
BRANCH  20  21
ATOM     21  C   UNL     1       2.903 115.542 183.283  1.00  0.00     0.053 C 
BRANCH  21  22
ATOM     22  C   UNL     1       3.409 116.824 182.695  1.00  0.00     0.041 C 
ATOM     23  O   UNL     1       4.366 116.812 181.877  1.00  0.00    -0.550 OA
ATOM     24  O   UNL     1       2.851 118.035 183.082  1.00  0.00    -0.550 OA
ENDBRANCH  21  22
ENDBRANCH  20  21
ENDBRANCH  19  20
ENDBRANCH  18  19
ENDBRANCH  17  18
ENDBRANCH  16  17
ENDBRANCH  15  16
ENDBRANCH  14  15
ENDBRANCH  13  14
ENDBRANCH   1  13
TORSDOF 20
ENDMDL
MODEL 3
REMARK VINA RESULT:    -3.306      1.706      3.401
REMARK INTER + INTRA:         -10.434
REMARK INTER:                  -7.239
REMARK INTRA:                  -3.195
REMARK UNBOUND:                -3.262
REMARK SMILES CCCCCCCCCCCCCCCCCCCCCC(=O)[O-]
REMARK SMILES IDX 12 1 11 2 10 3 9 4 8 5 7 6 6 7 5 8 4 9 3 10 2 11 1 12 13 13
REMARK SMILES IDX 14 14 15 15 16 16 17 17 18 18 19 19 20 20 21 21 22 22 23 23
REMARK SMILES IDX 24 24
REMARK H PARENT
REMARK Flexibility Score: inf
ROOT
ATOM      1  C   UNL     1       3.892 108.856 179.432  1.00  0.00     0.000 C 
ENDROOT
BRANCH   1   2
ATOM      2  C   UNL     1       5.007 107.806 179.579  1.00  0.00     0.000 C 
BRANCH   2   3
ATOM      3  C   UNL     1       5.167 107.306 181.024  1.00  0.00     0.000 C 
BRANCH   3   4
ATOM      4  C   UNL     1       3.826 106.947 181.688  1.00  0.00    -0.000 C 
BRANCH   4   5
ATOM      5  C   UNL     1       3.459 107.779 182.936  1.00  0.00    -0.000 C 
BRANCH   5   6
ATOM      6  C   UNL     1       2.326 108.803 182.735  1.00  0.00    -0.000 C 
BRANCH   6   7
ATOM      7  C   UNL     1       2.717 110.220 183.188  1.00  0.00    -0.000 C 
BRANCH   7   8
ATOM      8  C   UNL     1       4.050 110.692 182.582  1.00  0.00    -0.000 C 
BRANCH   8   9
ATOM      9  C   UNL     1       4.930 111.491 183.567  1.00  0.00    -0.000 C 
BRANCH   9  10
ATOM     10  C   UNL     1       6.321 110.857 183.739  1.00  0.00    -0.000 C 
BRANCH  10  11
ATOM     11  C   UNL     1       6.267 109.484 184.423  1.00  0.00    -0.003 C 
ATOM     12  C   UNL     1       7.278 108.493 183.846  1.00  0.00     0.004 C 
ENDBRANCH  10  11
ENDBRANCH   9  10
ENDBRANCH   8   9
ENDBRANCH   7   8
ENDBRANCH   6   7
ENDBRANCH   5   6
ENDBRANCH   4   5
ENDBRANCH   3   4
ENDBRANCH   2   3
ENDBRANCH   1   2
BRANCH   1  13
ATOM     13  C   UNL     1       2.751 108.472 178.467  1.00  0.00     0.000 C 
BRANCH  13  14
ATOM     14  C   UNL     1       1.425 108.075 179.141  1.00  0.00     0.000 C 
BRANCH  14  15
ATOM     15  C   UNL     1       0.889 106.720 178.649  1.00  0.00     0.000 C 
BRANCH  15  16
ATOM     16  C   UNL     1       1.707 105.525 179.175  1.00  0.00     0.000 C 
BRANCH  16  17
ATOM     17  C   UNL     1       2.456 104.720 178.098  1.00  0.00     0.000 C 
BRANCH  17  18
ATOM     18  C   UNL     1       3.961 104.508 178.358  1.00  0.00     0.000 C 
BRANCH  18  19
ATOM     19  C   UNL     1       4.868 104.957 177.194  1.00  0.00     0.000 C 
BRANCH  19  20
ATOM     20  C   UNL     1       5.647 103.791 176.560  1.00  0.00     0.006 C 
BRANCH  20  21
ATOM     21  C   UNL     1       4.855 103.108 175.435  1.00  0.00     0.053 C 
BRANCH  21  22
ATOM     22  C   UNL     1       5.600 101.946 174.853  1.00  0.00     0.041 C 
ATOM     23  O   UNL     1       6.694 102.128 174.256  1.00  0.00    -0.550 OA
ATOM     24  O   UNL     1       5.067 100.666 174.934  1.00  0.00    -0.550 OA
ENDBRANCH  21  22
ENDBRANCH  20  21
ENDBRANCH  19  20
ENDBRANCH  18  19
ENDBRANCH  17  18
ENDBRANCH  16  17
ENDBRANCH  15  16
ENDBRANCH  14  15
ENDBRANCH  13  14
ENDBRANCH   1  13
TORSDOF 20
ENDMDL
MODEL 4
REMARK VINA RESULT:    -3.292      2.024      3.940
REMARK INTER + INTRA:         -10.403
REMARK INTER:                  -7.199
REMARK INTRA:                  -3.205
REMARK UNBOUND:                -3.262
REMARK SMILES CCCCCCCCCCCCCCCCCCCCCC(=O)[O-]
REMARK SMILES IDX 12 1 11 2 10 3 9 4 8 5 7 6 6 7 5 8 4 9 3 10 2 11 1 12 13 13
REMARK SMILES IDX 14 14 15 15 16 16 17 17 18 18 19 19 20 20 21 21 22 22 23 23
REMARK SMILES IDX 24 24
REMARK H PARENT
REMARK Flexibility Score: inf
ROOT
ATOM      1  C   UNL     1       3.275 108.869 178.208  1.00  0.00     0.000 C 
ENDROOT
BRANCH   1   2
ATOM      2  C   UNL     1       4.328 108.228 177.287  1.00  0.00     0.000 C 
BRANCH   2   3
ATOM      3  C   UNL     1       5.526 107.654 178.061  1.00  0.00     0.000 C 
BRANCH   3   4
ATOM      4  C   UNL     1       5.464 107.953 179.570  1.00  0.00    -0.000 C 
BRANCH   4   5
ATOM      5  C   UNL     1       5.403 106.714 180.490  1.00  0.00    -0.000 C 
BRANCH   5   6
ATOM      6  C   UNL     1       5.183 107.013 181.983  1.00  0.00    -0.000 C 
BRANCH   6   7
ATOM      7  C   UNL     1       3.694 107.122 182.356  1.00  0.00    -0.000 C 
BRANCH   7   8
ATOM      8  C   UNL     1       3.206 108.578 182.436  1.00  0.00    -0.000 C 
BRANCH   8   9
ATOM      9  C   UNL     1       4.280 109.565 182.941  1.00  0.00    -0.000 C 
BRANCH   9  10
ATOM     10  C   UNL     1       3.909 111.026 182.634  1.00  0.00    -0.000 C 
BRANCH  10  11
ATOM     11  C   UNL     1       4.306 111.989 183.761  1.00  0.00    -0.003 C 
ATOM     12  C   UNL     1       3.099 112.623 184.452  1.00  0.00     0.004 C 
ENDBRANCH  10  11
ENDBRANCH   9  10
ENDBRANCH   8   9
ENDBRANCH   7   8
ENDBRANCH   6   7
ENDBRANCH   5   6
ENDBRANCH   4   5
ENDBRANCH   3   4
ENDBRANCH   2   3
ENDBRANCH   1   2
BRANCH   1  13
ATOM     13  C   UNL     1       1.869 108.240 178.136  1.00  0.00     0.000 C 
BRANCH  13  14
ATOM     14  C   UNL     1       1.436 107.452 179.385  1.00  0.00     0.000 C 
BRANCH  14  15
ATOM     15  C   UNL     1       1.270 105.947 179.113  1.00  0.00     0.000 C 
BRANCH  15  16
ATOM     16  C   UNL     1       2.502 105.123 179.533  1.00  0.00     0.000 C 
BRANCH  16  17
ATOM     17  C   UNL     1       3.236 104.410 178.382  1.00  0.00     0.000 C 
BRANCH  17  18
ATOM     18  C   UNL     1       2.742 104.762 176.965  1.00  0.00     0.000 C 
BRANCH  18  19
ATOM     19  C   UNL     1       3.874 104.926 175.929  1.00  0.00     0.000 C 
BRANCH  19  20
ATOM     20  C   UNL     1       5.049 103.963 176.171  1.00  0.00     0.006 C 
BRANCH  20  21
ATOM     21  C   UNL     1       5.248 102.985 175.005  1.00  0.00     0.053 C 
BRANCH  21  22
ATOM     22  C   UNL     1       5.632 101.618 175.480  1.00  0.00     0.041 C 
ATOM     23  O   UNL     1       5.080 100.597 174.991  1.00  0.00    -0.550 OA
ATOM     24  O   UNL     1       6.572 101.471 176.492  1.00  0.00    -0.550 OA
ENDBRANCH  21  22
ENDBRANCH  20  21
ENDBRANCH  19  20
ENDBRANCH  18  19
ENDBRANCH  17  18
ENDBRANCH  16  17
ENDBRANCH  15  16
ENDBRANCH  14  15
ENDBRANCH  13  14
ENDBRANCH   1  13
TORSDOF 20
ENDMDL
MODEL 5
REMARK VINA RESULT:    -3.283      1.915      3.728
REMARK INTER + INTRA:         -10.383
REMARK INTER:                  -6.443
REMARK INTRA:                  -3.939
REMARK UNBOUND:                -3.262
REMARK SMILES CCCCCCCCCCCCCCCCCCCCCC(=O)[O-]
REMARK SMILES IDX 12 1 11 2 10 3 9 4 8 5 7 6 6 7 5 8 4 9 3 10 2 11 1 12 13 13
REMARK SMILES IDX 14 14 15 15 16 16 17 17 18 18 19 19 20 20 21 21 22 22 23 23
REMARK SMILES IDX 24 24
REMARK H PARENT
REMARK Flexibility Score: inf
ROOT
ATOM      1  C   UNL     1       4.930 108.165 179.681  1.00  0.00     0.000 C 
ENDROOT
BRANCH   1   2
ATOM      2  C   UNL     1       4.732 107.125 180.797  1.00  0.00     0.000 C 
BRANCH   2   3
ATOM      3  C   UNL     1       3.348 107.220 181.461  1.00  0.00     0.000 C 
BRANCH   3   4
ATOM      4  C   UNL     1       3.374 107.984 182.798  1.00  0.00    -0.000 C 
BRANCH   4   5
ATOM      5  C   UNL     1       2.675 109.360 182.789  1.00  0.00    -0.000 C 
BRANCH   5   6
ATOM      6  C   UNL     1       3.614 110.575 182.681  1.00  0.00    -0.000 C 
BRANCH   6   7
ATOM      7  C   UNL     1       4.986 110.327 183.331  1.00  0.00    -0.000 C 
BRANCH   7   8
ATOM      8  C   UNL     1       6.137 110.330 182.310  1.00  0.00    -0.000 C 
BRANCH   8   9
ATOM      9  C   UNL     1       7.447 109.718 182.852  1.00  0.00    -0.000 C 
BRANCH   9  10
ATOM     10  C   UNL     1       7.186 108.715 183.989  1.00  0.00    -0.000 C 
BRANCH  10  11
ATOM     11  C   UNL     1       7.714 107.309 183.672  1.00  0.00    -0.003 C 
ATOM     12  C   UNL     1       6.602 106.265 183.578  1.00  0.00     0.004 C 
ENDBRANCH  10  11
ENDBRANCH   9  10
ENDBRANCH   8   9
ENDBRANCH   7   8
ENDBRANCH   6   7
ENDBRANCH   5   6
ENDBRANCH   4   5
ENDBRANCH   3   4
ENDBRANCH   2   3
ENDBRANCH   1   2
BRANCH   1  13
ATOM     13  C   UNL     1       3.652 108.913 179.247  1.00  0.00     0.000 C 
BRANCH  13  14
ATOM     14  C   UNL     1       3.296 108.796 177.753  1.00  0.00     0.000 C 
BRANCH  14  15
ATOM     15  C   UNL     1       1.802 108.521 177.517  1.00  0.00     0.000 C 
BRANCH  15  16
ATOM     16  C   UNL     1       1.027 108.255 178.821  1.00  0.00     0.000 C 
BRANCH  16  17
ATOM     17  C   UNL     1       0.577 106.797 179.029  1.00  0.00     0.000 C 
BRANCH  17  18
ATOM     18  C   UNL     1       1.358 105.742 178.220  1.00  0.00     0.000 C 
BRANCH  18  19
ATOM     19  C   UNL     1       2.254 104.829 179.081  1.00  0.00     0.000 C 
BRANCH  19  20
ATOM     20  C   UNL     1       3.667 104.657 178.496  1.00  0.00     0.006 C 
BRANCH  20  21
ATOM     21  C   UNL     1       3.766 105.175 177.054  1.00  0.00     0.053 C 
BRANCH  21  22
ATOM     22  C   UNL     1       4.446 104.191 176.152  1.00  0.00     0.041 C 
ATOM     23  O   UNL     1       4.409 104.345 174.903  1.00  0.00    -0.550 OA
ATOM     24  O   UNL     1       5.087 103.082 176.688  1.00  0.00    -0.550 OA
ENDBRANCH  21  22
ENDBRANCH  20  21
ENDBRANCH  19  20
ENDBRANCH  18  19
ENDBRANCH  17  18
ENDBRANCH  16  17
ENDBRANCH  15  16
ENDBRANCH  14  15
ENDBRANCH  13  14
ENDBRANCH   1  13
TORSDOF 20
ENDMDL
MODEL 6
REMARK VINA RESULT:    -3.258      4.328      7.967
REMARK INTER + INTRA:         -10.329
REMARK INTER:                  -7.242
REMARK INTRA:                  -3.087
REMARK UNBOUND:                -3.262
REMARK SMILES CCCCCCCCCCCCCCCCCCCCCC(=O)[O-]
REMARK SMILES IDX 12 1 11 2 10 3 9 4 8 5 7 6 6 7 5 8 4 9 3 10 2 11 1 12 13 13
REMARK SMILES IDX 14 14 15 15 16 16 17 17 18 18 19 19 20 20 21 21 22 22 23 23
REMARK SMILES IDX 24 24
REMARK H PARENT
REMARK Flexibility Score: inf
ROOT
ATOM      1  C   UNL     1       3.510 108.850 179.452  1.00  0.00     0.000 C 
ENDROOT
BRANCH   1   2
ATOM      2  C   UNL     1       2.397 108.091 180.195  1.00  0.00     0.000 C 
BRANCH   2   3
ATOM      3  C   UNL     1       1.075 108.054 179.410  1.00  0.00     0.000 C 
BRANCH   3   4
ATOM      4  C   UNL     1       0.681 106.634 178.965  1.00  0.00    -0.000 C 
BRANCH   4   5
ATOM      5  C   UNL     1       1.748 105.544 179.201  1.00  0.00    -0.000 C 
BRANCH   5   6
ATOM      6  C   UNL     1       2.141 104.727 177.957  1.00  0.00    -0.000 C 
BRANCH   6   7
ATOM      7  C   UNL     1       3.624 104.318 177.958  1.00  0.00    -0.000 C 
BRANCH   7   8
ATOM      8  C   UNL     1       4.344 104.688 176.650  1.00  0.00    -0.000 C 
BRANCH   8   9
ATOM      9  C   UNL     1       5.471 103.705 176.263  1.00  0.00    -0.000 C 
BRANCH   9  10
ATOM     10  C   UNL     1       5.046 102.763 175.123  1.00  0.00    -0.000 C 
BRANCH  10  11
ATOM     11  C   UNL     1       5.800 101.427 175.146  1.00  0.00    -0.003 C 
ATOM     12  C   UNL     1       7.275 101.572 174.772  1.00  0.00     0.004 C 
ENDBRANCH  10  11
ENDBRANCH   9  10
ENDBRANCH   8   9
ENDBRANCH   7   8
ENDBRANCH   6   7
ENDBRANCH   5   6
ENDBRANCH   4   5
ENDBRANCH   3   4
ENDBRANCH   2   3
ENDBRANCH   1   2
BRANCH   1  13
ATOM     13  C   UNL     1       4.423 107.976 178.567  1.00  0.00     0.000 C 
BRANCH  13  14
ATOM     14  C   UNL     1       5.896 107.904 179.009  1.00  0.00     0.000 C 
BRANCH  14  15
ATOM     15  C   UNL     1       6.378 106.463 179.245  1.00  0.00     0.000 C 
BRANCH  15  16
ATOM     16  C   UNL     1       5.998 105.924 180.637  1.00  0.00     0.000 C 
BRANCH  16  17
ATOM     17  C   UNL     1       6.054 106.958 181.777  1.00  0.00     0.000 C 
BRANCH  17  18
ATOM     18  C   UNL     1       4.815 106.998 182.695  1.00  0.00     0.000 C 
BRANCH  18  19
ATOM     19  C   UNL     1       4.555 108.376 183.338  1.00  0.00     0.000 C 
BRANCH  19  20
ATOM     20  C   UNL     1       5.337 109.511 182.653  1.00  0.00     0.006 C 
BRANCH  20  21
ATOM     21  C   UNL     1       4.455 110.735 182.370  1.00  0.00     0.053 C 
BRANCH  21  22
ATOM     22  C   UNL     1       4.186 111.530 183.611  1.00  0.00     0.041 C 
ATOM     23  O   UNL     1       5.141 111.924 184.331  1.00  0.00    -0.550 OA
ATOM     24  O   UNL     1       2.879 111.802 183.994  1.00  0.00    -0.550 OA
ENDBRANCH  21  22
ENDBRANCH  20  21
ENDBRANCH  19  20
ENDBRANCH  18  19
ENDBRANCH  17  18
ENDBRANCH  16  17
ENDBRANCH  15  16
ENDBRANCH  14  15
ENDBRANCH  13  14
ENDBRANCH   1  13
TORSDOF 20
ENDMDL
MODEL 7
REMARK VINA RESULT:    -3.248      3.351      7.144
REMARK INTER + INTRA:         -10.309
REMARK INTER:                  -6.442
REMARK INTRA:                  -3.867
REMARK UNBOUND:                -3.262
REMARK SMILES CCCCCCCCCCCCCCCCCCCCCC(=O)[O-]
REMARK SMILES IDX 12 1 11 2 10 3 9 4 8 5 7 6 6 7 5 8 4 9 3 10 2 11 1 12 13 13
REMARK SMILES IDX 14 14 15 15 16 16 17 17 18 18 19 19 20 20 21 21 22 22 23 23
REMARK SMILES IDX 24 24
REMARK H PARENT
REMARK Flexibility Score: inf
ROOT
ATOM      1  C   UNL     1       3.235 104.440 178.730  1.00  0.00     0.000 C 
ENDROOT
BRANCH   1   2
ATOM      2  C   UNL     1       4.046 105.432 179.583  1.00  0.00     0.000 C 
BRANCH   2   3
ATOM      3  C   UNL     1       5.234 106.041 178.818  1.00  0.00     0.000 C 
BRANCH   3   4
ATOM      4  C   UNL     1       5.726 105.150 177.664  1.00  0.00    -0.000 C 
BRANCH   4   5
ATOM      5  C   UNL     1       5.756 105.820 176.273  1.00  0.00    -0.000 C 
BRANCH   5   6
ATOM      6  C   UNL     1       5.436 104.893 175.087  1.00  0.00    -0.000 C 
BRANCH   6   7
ATOM      7  C   UNL     1       4.761 103.581 175.523  1.00  0.00    -0.000 C 
BRANCH   7   8
ATOM      8  C   UNL     1       5.168 102.383 174.648  1.00  0.00    -0.000 C 
BRANCH   8   9
ATOM      9  C   UNL     1       6.495 101.723 175.078  1.00  0.00    -0.000 C 
BRANCH   9  10
ATOM     10  C   UNL     1       6.647 101.682 176.609  1.00  0.00    -0.000 C 
BRANCH  10  11
ATOM     11  C   UNL     1       8.067 102.030 177.074  1.00  0.00    -0.003 C 
ATOM     12  C   UNL     1       8.644 103.250 176.357  1.00  0.00     0.004 C 
ENDBRANCH  10  11
ENDBRANCH   9  10
ENDBRANCH   8   9
ENDBRANCH   7   8
ENDBRANCH   6   7
ENDBRANCH   5   6
ENDBRANCH   4   5
ENDBRANCH   3   4
ENDBRANCH   2   3
ENDBRANCH   1   2
BRANCH   1  13
ATOM     13  C   UNL     1       1.855 104.949 178.266  1.00  0.00     0.000 C 
BRANCH  13  14
ATOM     14  C   UNL     1       1.690 105.107 176.743  1.00  0.00     0.000 C 
BRANCH  14  15
ATOM     15  C   UNL     1       1.447 106.565 176.318  1.00  0.00     0.000 C 
BRANCH  15  16
ATOM     16  C   UNL     1       2.493 107.539 176.891  1.00  0.00     0.000 C 
BRANCH  16  17
ATOM     17  C   UNL     1       1.915 108.772 177.611  1.00  0.00     0.000 C 
BRANCH  17  18
ATOM     18  C   UNL     1       0.766 108.484 178.597  1.00  0.00     0.000 C 
BRANCH  18  19
ATOM     19  C   UNL     1       1.234 107.943 179.964  1.00  0.00     0.000 C 
BRANCH  19  20
ATOM     20  C   UNL     1       2.534 108.606 180.454  1.00  0.00     0.006 C 
BRANCH  20  21
ATOM     21  C   UNL     1       2.832 108.281 181.925  1.00  0.00     0.053 C 
BRANCH  21  22
ATOM     22  C   UNL     1       4.301 108.127 182.177  1.00  0.00     0.041 C 
ATOM     23  O   UNL     1       4.709 107.558 183.224  1.00  0.00    -0.550 OA
ATOM     24  O   UNL     1       5.221 108.646 181.275  1.00  0.00    -0.550 OA
ENDBRANCH  21  22
ENDBRANCH  20  21
ENDBRANCH  19  20
ENDBRANCH  18  19
ENDBRANCH  17  18
ENDBRANCH  16  17
ENDBRANCH  15  16
ENDBRANCH  14  15
ENDBRANCH  13  14
ENDBRANCH   1  13
TORSDOF 20
ENDMDL
MODEL 8
REMARK VINA RESULT:    -3.241      4.701      8.701
REMARK INTER + INTRA:         -10.294
REMARK INTER:                  -6.930
REMARK INTRA:                  -3.363
REMARK UNBOUND:                -3.262
REMARK SMILES CCCCCCCCCCCCCCCCCCCCCC(=O)[O-]
REMARK SMILES IDX 12 1 11 2 10 3 9 4 8 5 7 6 6 7 5 8 4 9 3 10 2 11 1 12 13 13
REMARK SMILES IDX 14 14 15 15 16 16 17 17 18 18 19 19 20 20 21 21 22 22 23 23
REMARK SMILES IDX 24 24
REMARK H PARENT
REMARK Flexibility Score: inf
ROOT
ATOM      1  C   UNL     1       6.579 107.629 179.776  1.00  0.00     0.000 C 
ENDROOT
BRANCH   1   2
ATOM      2  C   UNL     1       5.107 107.256 179.531  1.00  0.00     0.000 C 
BRANCH   2   3
ATOM      3  C   UNL     1       4.753 105.854 180.055  1.00  0.00     0.000 C 
BRANCH   3   4
ATOM      4  C   UNL     1       3.244 105.666 180.297  1.00  0.00    -0.000 C 
BRANCH   4   5
ATOM      5  C   UNL     1       2.337 106.778 179.725  1.00  0.00    -0.000 C 
BRANCH   5   6
ATOM      6  C   UNL     1       1.439 106.355 178.549  1.00  0.00    -0.000 C 
BRANCH   6   7
ATOM      7  C   UNL     1       1.774 104.951 178.018  1.00  0.00    -0.000 C 
BRANCH   7   8
ATOM      8  C   UNL     1       2.339 104.974 176.588  1.00  0.00    -0.000 C 
BRANCH   8   9
ATOM      9  C   UNL     1       3.560 105.903 176.419  1.00  0.00    -0.000 C 
BRANCH   9  10
ATOM     10  C   UNL     1       4.805 105.135 175.942  1.00  0.00    -0.000 C 
BRANCH  10  11
ATOM     11  C   UNL     1       5.396 104.229 177.031  1.00  0.00    -0.003 C 
ATOM     12  C   UNL     1       5.459 102.761 176.611  1.00  0.00     0.004 C 
ENDBRANCH  10  11
ENDBRANCH   9  10
ENDBRANCH   8   9
ENDBRANCH   7   8
ENDBRANCH   6   7
ENDBRANCH   5   6
ENDBRANCH   4   5
ENDBRANCH   3   4
ENDBRANCH   2   3
ENDBRANCH   1   2
BRANCH   1  13
ATOM     13  C   UNL     1       6.802 108.925 180.582  1.00  0.00     0.000 C 
BRANCH  13  14
ATOM     14  C   UNL     1       7.254 108.725 182.040  1.00  0.00     0.000 C 
BRANCH  14  15
ATOM     15  C   UNL     1       7.176 107.257 182.492  1.00  0.00     0.000 C 
BRANCH  15  16
ATOM     16  C   UNL     1       5.912 106.950 183.317  1.00  0.00     0.000 C 
BRANCH  16  17
ATOM     17  C   UNL     1       5.029 108.170 183.642  1.00  0.00     0.000 C 
BRANCH  17  18
ATOM     18  C   UNL     1       3.646 108.185 182.961  1.00  0.00     0.000 C 
BRANCH  18  19
ATOM     19  C   UNL     1       3.305 109.519 182.264  1.00  0.00     0.000 C 
BRANCH  19  20
ATOM     20  C   UNL     1       2.996 110.650 183.259  1.00  0.00     0.006 C 
BRANCH  20  21
ATOM     21  C   UNL     1       4.116 111.699 183.312  1.00  0.00     0.053 C 
BRANCH  21  22
ATOM     22  C   UNL     1       3.923 112.668 184.439  1.00  0.00     0.041 C 
ATOM     23  O   UNL     1       4.907 113.048 185.125  1.00  0.00    -0.550 OA
ATOM     24  O   UNL     1       2.649 113.121 184.756  1.00  0.00    -0.550 OA
ENDBRANCH  21  22
ENDBRANCH  20  21
ENDBRANCH  19  20
ENDBRANCH  18  19
ENDBRANCH  17  18
ENDBRANCH  16  17
ENDBRANCH  15  16
ENDBRANCH  14  15
ENDBRANCH  13  14
ENDBRANCH   1  13
TORSDOF 20
ENDMDL
MODEL 9
REMARK VINA RESULT:    -3.230      1.759      3.646
REMARK INTER + INTRA:         -10.269
REMARK INTER:                  -6.737
REMARK INTRA:                  -3.532
REMARK UNBOUND:                -3.262
REMARK SMILES CCCCCCCCCCCCCCCCCCCCCC(=O)[O-]
REMARK SMILES IDX 12 1 11 2 10 3 9 4 8 5 7 6 6 7 5 8 4 9 3 10 2 11 1 12 13 13
REMARK SMILES IDX 14 14 15 15 16 16 17 17 18 18 19 19 20 20 21 21 22 22 23 23
REMARK SMILES IDX 24 24
REMARK H PARENT
REMARK Flexibility Score: inf
ROOT
ATOM      1  C   UNL     1       4.569 108.476 179.950  1.00  0.00     0.000 C 
ENDROOT
BRANCH   1   2
ATOM      2  C   UNL     1       5.470 107.279 179.601  1.00  0.00     0.000 C 
BRANCH   2   3
ATOM      3  C   UNL     1       5.599 106.274 180.758  1.00  0.00     0.000 C 
BRANCH   3   4
ATOM      4  C   UNL     1       4.719 106.635 181.968  1.00  0.00    -0.000 C 
BRANCH   4   5
ATOM      5  C   UNL     1       5.483 106.995 183.261  1.00  0.00    -0.000 C 
BRANCH   5   6
ATOM      6  C   UNL     1       6.476 108.163 183.135  1.00  0.00    -0.000 C 
BRANCH   6   7
ATOM      7  C   UNL     1       6.473 109.083 184.368  1.00  0.00    -0.000 C 
BRANCH   7   8
ATOM      8  C   UNL     1       5.813 110.445 184.093  1.00  0.00    -0.000 C 
BRANCH   8   9
ATOM      9  C   UNL     1       5.671 110.773 182.591  1.00  0.00    -0.000 C 
BRANCH   9  10
ATOM     10  C   UNL     1       4.228 111.153 182.220  1.00  0.00    -0.000 C 
BRANCH  10  11
ATOM     11  C   UNL     1       3.201 110.657 183.247  1.00  0.00    -0.003 C 
ATOM     12  C   UNL     1       2.487 109.380 182.803  1.00  0.00     0.004 C 
ENDBRANCH  10  11
ENDBRANCH   9  10
ENDBRANCH   8   9
ENDBRANCH   7   8
ENDBRANCH   6   7
ENDBRANCH   5   6
ENDBRANCH   4   5
ENDBRANCH   3   4
ENDBRANCH   2   3
ENDBRANCH   1   2
BRANCH   1  13
ATOM     13  C   UNL     1       3.579 108.897 178.845  1.00  0.00     0.000 C 
BRANCH  13  14
ATOM     14  C   UNL     1       2.745 107.754 178.237  1.00  0.00     0.000 C 
BRANCH  14  15
ATOM     15  C   UNL     1       1.785 107.112 179.253  1.00  0.00     0.000 C 
BRANCH  15  16
ATOM     16  C   UNL     1       2.118 105.636 179.542  1.00  0.00     0.000 C 
BRANCH  16  17
ATOM     17  C   UNL     1       2.241 104.736 178.299  1.00  0.00     0.000 C 
BRANCH  17  18
ATOM     18  C   UNL     1       3.607 104.046 178.114  1.00  0.00     0.000 C 
BRANCH  18  19
ATOM     19  C   UNL     1       4.558 104.785 177.150  1.00  0.00     0.000 C 
BRANCH  19  20
ATOM     20  C   UNL     1       6.032 104.386 177.344  1.00  0.00     0.006 C 
BRANCH  20  21
ATOM     21  C   UNL     1       6.635 103.759 176.079  1.00  0.00     0.053 C 
BRANCH  21  22
ATOM     22  C   UNL     1       6.706 102.265 176.175  1.00  0.00     0.041 C 
ATOM     23  O   UNL     1       7.801 101.697 176.424  1.00  0.00    -0.550 OA
ATOM     24  O   UNL     1       5.570 101.498 175.948  1.00  0.00    -0.550 OA
ENDBRANCH  21  22
ENDBRANCH  20  21
ENDBRANCH  19  20
ENDBRANCH  18  19
ENDBRANCH  17  18
ENDBRANCH  16  17
ENDBRANCH  15  16
ENDBRANCH  14  15
ENDBRANCH  13  14
ENDBRANCH   1  13
TORSDOF 20
ENDMDL
