MODEL 1
REMARK VINA RESULT:    -2.891      0.000      0.000
REMARK INTER + INTRA:          -3.687
REMARK INTER:                  -3.398
REMARK INTRA:                  -0.289
REMARK UNBOUND:                -0.289
REMARK SMILES O=c1c(O)c(-c2ccc(O)cc2)oc2cc(O)cc(O)c12
REMARK SMILES IDX 5 1 3 2 2 3 1 4 21 5 19 6 18 7 16 8 15 9 14 10 13 11 6 12
REMARK SMILES IDX 7 13 8 14 9 15 12 16 11 17 10 18 4 20 20 22 17 24
REMARK H PARENT 10 19 4 21 20 23 17 25
REMARK Flexibility Score: inf
ROOT
ATOM      1  C   UNL     1     -24.530 -10.117   8.253  1.00  0.00     0.180 A 
ATOM      2  C   UNL     1     -24.558 -10.740   6.994  1.00  0.00     0.208 A 
ATOM      3  C   UNL     1     -24.443 -12.137   6.923  1.00  0.00     0.238 A 
ATOM      4  O   UNL     1     -24.415 -12.684   5.789  1.00  0.00    -0.285 OA
ATOM      5  C   UNL     1     -24.318 -12.895   8.112  1.00  0.00     0.111 A 
ATOM      6  C   UNL     1     -24.236 -14.320   8.159  1.00  0.00     0.134 A 
ATOM      7  C   UNL     1     -23.982 -14.956   9.380  1.00  0.00     0.093 A 
ATOM      8  C   UNL     1     -23.874 -14.227  10.563  1.00  0.00     0.123 A 
ATOM      9  C   UNL     1     -24.013 -12.839  10.537  1.00  0.00     0.094 A 
ATOM     10  C   UNL     1     -24.230 -12.172   9.329  1.00  0.00     0.146 A 
ATOM     11  O   UNL     1     -24.345 -10.850   9.346  1.00  0.00    -0.452 OA
ENDROOT
BRANCH   1  12
ATOM     12  C   UNL     1     -24.670  -8.651   8.412  1.00  0.00     0.021 A 
ATOM     13  C   UNL     1     -25.950  -8.090   8.558  1.00  0.00     0.016 A 
ATOM     14  C   UNL     1     -26.106  -6.707   8.687  1.00  0.00     0.047 A 
ATOM     15  C   UNL     1     -24.986  -5.866   8.658  1.00  0.00     0.115 A 
ATOM     16  C   UNL     1     -23.552  -7.798   8.363  1.00  0.00     0.016 A 
ATOM     17  C   UNL     1     -23.712  -6.416   8.493  1.00  0.00     0.047 A 
BRANCH  15  18
ATOM     18  O   UNL     1     -25.129  -4.486   8.787  1.00  0.00    -0.508 OA
ATOM     19  H   UNL     1     -26.014  -4.069   9.052  1.00  0.00     0.293 HD
ENDBRANCH  15  18
ENDBRANCH   1  12
BRANCH   2  20
ATOM     20  O   UNL     1     -24.660  -9.970   5.831  1.00  0.00    -0.502 OA
ATOM     21  H   UNL     1     -25.007 -10.348   4.958  1.00  0.00     0.293 HD
ENDBRANCH   2  20
BRANCH   6  22
ATOM     22  O   UNL     1     -24.422 -15.149   7.049  1.00  0.00    -0.507 OA
ATOM     23  H   UNL     1     -25.302 -15.290   6.577  1.00  0.00     0.293 HD
ENDBRANCH   6  22
BRANCH   8  24
ATOM     24  O   UNL     1     -23.638 -14.895  11.763  1.00  0.00    -0.508 OA
ATOM     25  H   UNL     1     -24.135 -14.652  12.612  1.00  0.00     0.293 HD
ENDBRANCH   8  24
TORSDOF 5
ENDMDL
MODEL 2
REMARK VINA RESULT:    -1.949      1.455      3.181
REMARK INTER + INTRA:          -2.580
REMARK INTER:                  -2.318
REMARK INTRA:                  -0.263
REMARK UNBOUND:                -0.289
REMARK SMILES O=c1c(O)c(-c2ccc(O)cc2)oc2cc(O)cc(O)c12
REMARK SMILES IDX 5 1 3 2 2 3 1 4 21 5 19 6 18 7 16 8 15 9 14 10 13 11 6 12
REMARK SMILES IDX 7 13 8 14 9 15 12 16 11 17 10 18 4 20 20 22 17 24
REMARK H PARENT 10 19 4 21 20 23 17 25
REMARK Flexibility Score: inf
ROOT
ATOM      1  C   UNL     1     -24.227 -10.588   8.154  1.00  0.00     0.180 A 
ATOM      2  C   UNL     1     -24.139 -11.432   9.275  1.00  0.00     0.208 A 
ATOM      3  C   UNL     1     -24.260 -12.819   9.094  1.00  0.00     0.238 A 
ATOM      4  O   UNL     1     -24.234 -13.564  10.108  1.00  0.00    -0.285 OA
ATOM      5  C   UNL     1     -24.452 -13.347   7.795  1.00  0.00     0.111 A 
ATOM      6  C   UNL     1     -24.548 -14.738   7.492  1.00  0.00     0.134 A 
ATOM      7  C   UNL     1     -24.869 -15.140   6.189  1.00  0.00     0.093 A 
ATOM      8  C   UNL     1     -25.032 -14.206   5.167  1.00  0.00     0.123 A 
ATOM      9  C   UNL     1     -24.882 -12.846   5.440  1.00  0.00     0.094 A 
ATOM     10  C   UNL     1     -24.598 -12.412   6.737  1.00  0.00     0.146 A 
ATOM     11  O   UNL     1     -24.473 -11.109   6.956  1.00  0.00    -0.452 OA
ENDROOT
BRANCH   1  12
ATOM     12  C   UNL     1     -24.084  -9.119   8.259  1.00  0.00     0.021 A 
ATOM     13  C   UNL     1     -25.187  -8.342   8.652  1.00  0.00     0.016 A 
ATOM     14  C   UNL     1     -25.079  -6.951   8.737  1.00  0.00     0.047 A 
ATOM     15  C   UNL     1     -23.872  -6.317   8.416  1.00  0.00     0.115 A 
ATOM     16  C   UNL     1     -22.881  -8.473   7.920  1.00  0.00     0.016 A 
ATOM     17  C   UNL     1     -22.776  -7.082   8.005  1.00  0.00     0.047 A 
BRANCH  15  18
ATOM     18  O   UNL     1     -23.752  -4.931   8.497  1.00  0.00    -0.508 OA
ATOM     19  H   UNL     1     -23.354  -4.390   7.739  1.00  0.00     0.293 HD
ENDBRANCH  15  18
ENDBRANCH   1  12
BRANCH   2  20
ATOM     20  O   UNL     1     -23.970 -10.888  10.552  1.00  0.00    -0.502 OA
ATOM     21  H   UNL     1     -24.533 -10.119  10.893  1.00  0.00     0.293 HD
ENDBRANCH   2  20
BRANCH   6  22
ATOM     22  O   UNL     1     -24.312 -15.757   8.419  1.00  0.00    -0.507 OA
ATOM     23  H   UNL     1     -23.433 -15.916   8.887  1.00  0.00     0.293 HD
ENDBRANCH   6  22
BRANCH   8  24
ATOM     24  O   UNL     1     -25.335 -14.643   3.879  1.00  0.00    -0.508 OA
ATOM     25  H   UNL     1     -26.258 -14.986   3.638  1.00  0.00     0.293 HD
ENDBRANCH   8  24
TORSDOF 5
ENDMDL
MODEL 3
REMARK VINA RESULT:    -0.929      1.834      6.813
REMARK INTER + INTRA:          -1.381
REMARK INTER:                  -1.081
REMARK INTRA:                  -0.300
REMARK UNBOUND:                -0.289
REMARK SMILES O=c1c(O)c(-c2ccc(O)cc2)oc2cc(O)cc(O)c12
REMARK SMILES IDX 5 1 3 2 2 3 1 4 21 5 19 6 18 7 16 8 15 9 14 10 13 11 6 12
REMARK SMILES IDX 7 13 8 14 9 15 12 16 11 17 10 18 4 20 20 22 17 24
REMARK H PARENT 10 19 4 21 20 23 17 25
REMARK Flexibility Score: inf
ROOT
ATOM      1  C   UNL     1     -23.531  -9.829   8.765  1.00  0.00     0.180 A 
ATOM      2  C   UNL     1     -22.644  -9.287   7.819  1.00  0.00     0.208 A 
ATOM      3  C   UNL     1     -22.750  -7.928   7.486  1.00  0.00     0.238 A 
ATOM      4  O   UNL     1     -21.989  -7.462   6.599  1.00  0.00    -0.285 OA
ATOM      5  C   UNL     1     -23.731  -7.123   8.115  1.00  0.00     0.111 A 
ATOM      6  C   UNL     1     -23.901  -5.724   7.883  1.00  0.00     0.134 A 
ATOM      7  C   UNL     1     -24.988  -5.057   8.460  1.00  0.00     0.093 A 
ATOM      8  C   UNL     1     -25.870  -5.719   9.313  1.00  0.00     0.123 A 
ATOM      9  C   UNL     1     -25.677  -7.072   9.594  1.00  0.00     0.094 A 
ATOM     10  C   UNL     1     -24.625  -7.774   9.003  1.00  0.00     0.146 A 
ATOM     11  O   UNL     1     -24.483  -9.063   9.288  1.00  0.00    -0.452 OA
ENDROOT
BRANCH   1  12
ATOM     12  C   UNL     1     -23.466 -11.247   9.187  1.00  0.00     0.021 A 
ATOM     13  C   UNL     1     -24.287 -12.195   8.555  1.00  0.00     0.016 A 
ATOM     14  C   UNL     1     -24.257 -13.535   8.952  1.00  0.00     0.047 A 
ATOM     15  C   UNL     1     -23.417 -13.941   9.997  1.00  0.00     0.115 A 
ATOM     16  C   UNL     1     -22.640 -11.658  10.249  1.00  0.00     0.016 A 
ATOM     17  C   UNL     1     -22.613 -12.999  10.644  1.00  0.00     0.047 A 
BRANCH  15  18
ATOM     18  O   UNL     1     -23.377 -15.274  10.402  1.00  0.00    -0.508 OA
ATOM     19  H   UNL     1     -24.019 -15.633  11.099  1.00  0.00     0.293 HD
ENDBRANCH  15  18
ENDBRANCH   1  12
BRANCH   2  20
ATOM     20  O   UNL     1     -21.697 -10.105   7.195  1.00  0.00    -0.502 OA
ATOM     21  H   UNL     1     -21.788 -10.404   6.232  1.00  0.00     0.293 HD
ENDBRANCH   2  20
BRANCH   6  22
ATOM     22  O   UNL     1     -23.023  -4.947   7.122  1.00  0.00    -0.507 OA
ATOM     23  H   UNL     1     -22.193  -5.295   6.669  1.00  0.00     0.293 HD
ENDBRANCH   6  22
BRANCH   8  24
ATOM     24  O   UNL     1     -26.931  -5.019   9.884  1.00  0.00    -0.508 OA
ATOM     25  H   UNL     1     -26.862  -4.030  10.094  1.00  0.00     0.293 HD
ENDBRANCH   8  24
TORSDOF 5
ENDMDL
MODEL 4
REMARK VINA RESULT:     0.041      2.607      6.756
REMARK INTER + INTRA:          -0.241
REMARK INTER:                  -0.479
REMARK INTRA:                   0.239
REMARK UNBOUND:                -0.289
REMARK SMILES O=c1c(O)c(-c2ccc(O)cc2)oc2cc(O)cc(O)c12
REMARK SMILES IDX 5 1 3 2 2 3 1 4 21 5 19 6 18 7 16 8 15 9 14 10 13 11 6 12
REMARK SMILES IDX 7 13 8 14 9 15 12 16 11 17 10 18 4 20 20 22 17 24
REMARK H PARENT 10 19 4 21 20 23 17 25
REMARK Flexibility Score: inf
ROOT
ATOM      1  C   UNL     1     -24.130 -11.401   6.007  1.00  0.00     0.180 A 
ATOM      2  C   UNL     1     -23.137 -10.656   5.348  1.00  0.00     0.208 A 
ATOM      3  C   UNL     1     -22.871  -9.346   5.777  1.00  0.00     0.238 A 
ATOM      4  O   UNL     1     -22.018  -8.666   5.148  1.00  0.00    -0.285 OA
ATOM      5  C   UNL     1     -23.590  -8.802   6.868  1.00  0.00     0.111 A 
ATOM      6  C   UNL     1     -23.374  -7.500   7.412  1.00  0.00     0.134 A 
ATOM      7  C   UNL     1     -24.233  -7.017   8.407  1.00  0.00     0.093 A 
ATOM      8  C   UNL     1     -25.255  -7.811   8.924  1.00  0.00     0.123 A 
ATOM      9  C   UNL     1     -25.437  -9.108   8.441  1.00  0.00     0.094 A 
ATOM     10  C   UNL     1     -24.620  -9.605   7.424  1.00  0.00     0.146 A 
ATOM     11  O   UNL     1     -24.833 -10.839   6.985  1.00  0.00    -0.452 OA
ENDROOT
BRANCH   1  12
ATOM     12  C   UNL     1     -24.451 -12.796   5.630  1.00  0.00     0.021 A 
ATOM     13  C   UNL     1     -24.742 -13.735   6.634  1.00  0.00     0.016 A 
ATOM     14  C   UNL     1     -25.026 -15.063   6.302  1.00  0.00     0.047 A 
ATOM     15  C   UNL     1     -25.007 -15.472   4.962  1.00  0.00     0.115 A 
ATOM     16  C   UNL     1     -24.414 -13.220   4.289  1.00  0.00     0.016 A 
ATOM     17  C   UNL     1     -24.698 -14.549   3.960  1.00  0.00     0.047 A 
BRANCH  15  18
ATOM     18  O   UNL     1     -25.289 -16.793   4.618  1.00  0.00    -0.508 OA
ATOM     19  H   UNL     1     -25.945 -17.018   3.879  1.00  0.00     0.293 HD
ENDBRANCH  15  18
ENDBRANCH   1  12
BRANCH   2  20
ATOM     20  O   UNL     1     -22.454 -11.205   4.259  1.00  0.00    -0.502 OA
ATOM     21  H   UNL     1     -22.163 -12.175   4.232  1.00  0.00     0.293 HD
ENDBRANCH   2  20
BRANCH   6  22
ATOM     22  O   UNL     1     -22.323  -6.660   7.032  1.00  0.00    -0.507 OA
ATOM     23  H   UNL     1     -22.237  -6.220   6.129  1.00  0.00     0.293 HD
ENDBRANCH   6  22
BRANCH   8  24
ATOM     24  O   UNL     1     -26.080  -7.304   9.926  1.00  0.00    -0.508 OA
ATOM     25  H   UNL     1     -27.081  -7.212   9.793  1.00  0.00     0.293 HD
ENDBRANCH   8  24
TORSDOF 5
ENDMDL
