MODEL 1
REMARK VINA RESULT:     0.791      0.000      0.000
REMARK INTER + INTRA:           0.518
REMARK INTER:                   2.085
REMARK INTRA:                  -1.567
REMARK UNBOUND:                -1.567
REMARK SMILES CCCCCCCCCCCCCCCCCCCCCCCCCCCCCC(=O)[O-]
REMARK SMILES IDX 16 1 17 2 18 3 19 4 20 5 21 6 22 7 23 8 24 9 25 10 26 11
REMARK SMILES IDX 27 12 28 13 29 14 30 15 31 16 32 17 15 18 14 19 13 20 12 21
REMARK SMILES IDX 11 22 10 23 9 24 8 25 7 26 6 27 5 28 4 29 3 30 2 31 1 32
REMARK H PARENT
REMARK Flexibility Score: inf
ROOT
ATOM      1  C   UNL     1      18.587   3.685 -12.351  1.00  0.00     0.000 C 
ENDROOT
BRANCH   1   2
ATOM      2  C   UNL     1      17.726   3.804 -11.082  1.00  0.00     0.000 C 
BRANCH   2   3
ATOM      3  C   UNL     1      17.246   5.248 -10.831  1.00  0.00     0.000 C 
BRANCH   3   4
ATOM      4  C   UNL     1      18.304   6.306 -11.201  1.00  0.00     0.000 C 
BRANCH   4   5
ATOM      5  C   UNL     1      19.124   6.813  -9.999  1.00  0.00     0.000 C 
BRANCH   5   6
ATOM      6  C   UNL     1      20.020   5.757  -9.330  1.00  0.00     0.000 C 
BRANCH   6   7
ATOM      7  C   UNL     1      21.498   6.177  -9.295  1.00  0.00     0.000 C 
BRANCH   7   8
ATOM      8  C   UNL     1      21.957   6.735 -10.652  1.00  0.00     0.000 C 
BRANCH   8   9
ATOM      9  C   UNL     1      21.816   5.699 -11.791  1.00  0.00     0.000 C 
BRANCH   9  10
ATOM     10  C   UNL     1      22.656   6.020 -13.042  1.00  0.00     0.000 C 
BRANCH  10  11
ATOM     11  C   UNL     1      23.653   4.926 -13.463  1.00  0.00     0.000 C 
BRANCH  11  12
ATOM     12  C   UNL     1      24.932   5.430 -14.162  1.00  0.00     0.000 C 
BRANCH  12  13
ATOM     13  C   UNL     1      25.988   4.354 -14.459  1.00  0.00     0.006 C 
BRANCH  13  14
ATOM     14  C   UNL     1      27.316   4.937 -14.962  1.00  0.00     0.053 C 
BRANCH  14  15
ATOM     15  C   UNL     1      28.397   3.904 -14.897  1.00  0.00     0.041 C 
ATOM     16  O   UNL     1      29.151   3.710 -15.888  1.00  0.00    -0.550 OA
ATOM     17  O   UNL     1      28.618   3.207 -13.716  1.00  0.00    -0.550 OA
ENDBRANCH  14  15
ENDBRANCH  13  14
ENDBRANCH  12  13
ENDBRANCH  11  12
ENDBRANCH  10  11
ENDBRANCH   9  10
ENDBRANCH   8   9
ENDBRANCH   7   8
ENDBRANCH   6   7
ENDBRANCH   5   6
ENDBRANCH   4   5
ENDBRANCH   3   4
ENDBRANCH   2   3
ENDBRANCH   1   2
BRANCH   1  18
ATOM     18  C   UNL     1      18.621   2.255 -12.910  1.00  0.00     0.000 C 
BRANCH  18  19
ATOM     19  C   UNL     1      19.053   2.244 -14.382  1.00  0.00     0.000 C 
BRANCH  19  20
ATOM     20  C   UNL     1      18.525   0.990 -15.098  1.00  0.00     0.000 C 
BRANCH  20  21
ATOM     21  C   UNL     1      19.246   0.705 -16.424  1.00  0.00     0.000 C 
BRANCH  21  22
ATOM     22  C   UNL     1      20.724   1.134 -16.402  1.00  0.00     0.000 C 
BRANCH  22  23
ATOM     23  C   UNL     1      21.525   0.603 -17.603  1.00  0.00     0.000 C 
BRANCH  23  24
ATOM     24  C   UNL     1      22.959   0.159 -17.245  1.00  0.00    -0.000 C 
BRANCH  24  25
ATOM     25  C   UNL     1      23.735  -0.342 -18.475  1.00  0.00    -0.000 C 
BRANCH  25  26
ATOM     26  C   UNL     1      23.833  -1.877 -18.539  1.00  0.00    -0.000 C 
BRANCH  26  27
ATOM     27  C   UNL     1      24.989  -2.496 -17.726  1.00  0.00    -0.000 C 
BRANCH  27  28
ATOM     28  C   UNL     1      26.004  -3.323 -18.542  1.00  0.00    -0.000 C 
BRANCH  28  29
ATOM     29  C   UNL     1      25.757  -4.842 -18.539  1.00  0.00    -0.000 C 
BRANCH  29  30
ATOM     30  C   UNL     1      24.980  -5.321 -19.774  1.00  0.00    -0.000 C 
BRANCH  30  31
ATOM     31  C   UNL     1      25.827  -6.289 -20.607  1.00  0.00    -0.003 C 
ATOM     32  C   UNL     1      26.596  -5.553 -21.699  1.00  0.00     0.004 C 
ENDBRANCH  30  31
ENDBRANCH  29  30
ENDBRANCH  28  29
ENDBRANCH  27  28
ENDBRANCH  26  27
ENDBRANCH  25  26
ENDBRANCH  24  25
ENDBRANCH  23  24
ENDBRANCH  22  23
ENDBRANCH  21  22
ENDBRANCH  20  21
ENDBRANCH  19  20
ENDBRANCH  18  19
ENDBRANCH   1  18
TORSDOF 28
ENDMDL
MODEL 2
REMARK VINA RESULT:     1.508      3.150      9.033
REMARK INTER + INTRA:           2.410
REMARK INTER:                   4.621
REMARK INTRA:                  -2.211
REMARK UNBOUND:                -1.567
REMARK SMILES CCCCCCCCCCCCCCCCCCCCCCCCCCCCCC(=O)[O-]
REMARK SMILES IDX 16 1 17 2 18 3 19 4 20 5 21 6 22 7 23 8 24 9 25 10 26 11
REMARK SMILES IDX 27 12 28 13 29 14 30 15 31 16 32 17 15 18 14 19 13 20 12 21
REMARK SMILES IDX 11 22 10 23 9 24 8 25 7 26 6 27 5 28 4 29 3 30 2 31 1 32
REMARK H PARENT
REMARK Flexibility Score: inf
ROOT
ATOM      1  C   UNL     1      20.944   6.061 -12.607  1.00  0.00     0.000 C 
ENDROOT
BRANCH   1   2
ATOM      2  C   UNL     1      21.753   5.014 -13.392  1.00  0.00     0.000 C 
BRANCH   2   3
ATOM      3  C   UNL     1      23.178   4.831 -12.832  1.00  0.00     0.000 C 
BRANCH   3   4
ATOM      4  C   UNL     1      24.271   5.342 -13.790  1.00  0.00     0.000 C 
BRANCH   4   5
ATOM      5  C   UNL     1      25.213   4.237 -14.306  1.00  0.00     0.000 C 
BRANCH   5   6
ATOM      6  C   UNL     1      24.620   2.818 -14.295  1.00  0.00     0.000 C 
BRANCH   6   7
ATOM      7  C   UNL     1      25.632   1.754 -14.749  1.00  0.00     0.000 C 
BRANCH   7   8
ATOM      8  C   UNL     1      24.991   0.358 -14.811  1.00  0.00     0.000 C 
BRANCH   8   9
ATOM      9  C   UNL     1      24.372   0.056 -16.195  1.00  0.00     0.000 C 
BRANCH   9  10
ATOM     10  C   UNL     1      24.586  -1.391 -16.680  1.00  0.00     0.000 C 
BRANCH  10  11
ATOM     11  C   UNL     1      24.066  -1.693 -18.097  1.00  0.00     0.000 C 
BRANCH  11  12
ATOM     12  C   UNL     1      25.106  -2.283 -19.071  1.00  0.00     0.000 C 
BRANCH  12  13
ATOM     13  C   UNL     1      24.582  -3.384 -20.006  1.00  0.00     0.006 C 
BRANCH  13  14
ATOM     14  C   UNL     1      24.840  -4.800 -19.472  1.00  0.00     0.053 C 
BRANCH  14  15
ATOM     15  C   UNL     1      25.642  -5.590 -20.458  1.00  0.00     0.041 C 
ATOM     16  O   UNL     1      26.181  -5.018 -21.444  1.00  0.00    -0.550 OA
ATOM     17  O   UNL     1      25.856  -6.946 -20.248  1.00  0.00    -0.550 OA
ENDBRANCH  14  15
ENDBRANCH  13  14
ENDBRANCH  12  13
ENDBRANCH  11  12
ENDBRANCH  10  11
ENDBRANCH   9  10
ENDBRANCH   8   9
ENDBRANCH   7   8
ENDBRANCH   6   7
ENDBRANCH   5   6
ENDBRANCH   4   5
ENDBRANCH   3   4
ENDBRANCH   2   3
ENDBRANCH   1   2
BRANCH   1  18
ATOM     18  C   UNL     1      21.841   7.052 -11.849  1.00  0.00     0.000 C 
BRANCH  18  19
ATOM     19  C   UNL     1      21.467   7.114 -10.362  1.00  0.00     0.000 C 
BRANCH  19  20
ATOM     20  C   UNL     1      21.188   5.707  -9.810  1.00  0.00     0.000 C 
BRANCH  20  21
ATOM     21  C   UNL     1      19.743   5.529  -9.319  1.00  0.00     0.000 C 
BRANCH  21  22
ATOM     22  C   UNL     1      18.769   6.538  -9.954  1.00  0.00     0.000 C 
BRANCH  22  23
ATOM     23  C   UNL     1      17.847   5.907 -11.011  1.00  0.00     0.000 C 
BRANCH  23  24
ATOM     24  C   UNL     1      16.836   4.897 -10.428  1.00  0.00    -0.000 C 
BRANCH  24  25
ATOM     25  C   UNL     1      17.043   3.480 -10.989  1.00  0.00    -0.000 C 
BRANCH  25  26
ATOM     26  C   UNL     1      18.230   3.388 -11.965  1.00  0.00    -0.000 C 
BRANCH  26  27
ATOM     27  C   UNL     1      18.259   2.121 -12.845  1.00  0.00    -0.000 C 
BRANCH  27  28
ATOM     28  C   UNL     1      19.130   2.215 -14.114  1.00  0.00    -0.000 C 
BRANCH  28  29
ATOM     29  C   UNL     1      18.825   1.161 -15.193  1.00  0.00    -0.000 C 
BRANCH  29  30
ATOM     30  C   UNL     1      17.504   0.419 -14.944  1.00  0.00    -0.000 C 
BRANCH  30  31
ATOM     31  C   UNL     1      17.400  -0.821 -15.839  1.00  0.00    -0.003 C 
ATOM     32  C   UNL     1      16.935  -0.452 -17.244  1.00  0.00     0.004 C 
ENDBRANCH  30  31
ENDBRANCH  29  30
ENDBRANCH  28  29
ENDBRANCH  27  28
ENDBRANCH  26  27
ENDBRANCH  25  26
ENDBRANCH  24  25
ENDBRANCH  23  24
ENDBRANCH  22  23
ENDBRANCH  21  22
ENDBRANCH  20  21
ENDBRANCH  19  20
ENDBRANCH  18  19
ENDBRANCH   1  18
TORSDOF 28
ENDMDL
MODEL 3
REMARK VINA RESULT:     1.677      3.071      9.570
REMARK INTER + INTRA:           2.854
REMARK INTER:                   3.945
REMARK INTRA:                  -1.092
REMARK UNBOUND:                -1.567
REMARK SMILES CCCCCCCCCCCCCCCCCCCCCCCCCCCCCC(=O)[O-]
REMARK SMILES IDX 16 1 17 2 18 3 19 4 20 5 21 6 22 7 23 8 24 9 25 10 26 11
REMARK SMILES IDX 27 12 28 13 29 14 30 15 31 16 32 17 15 18 14 19 13 20 12 21
REMARK SMILES IDX 11 22 10 23 9 24 8 25 7 26 6 27 5 28 4 29 3 30 2 31 1 32
REMARK H PARENT
REMARK Flexibility Score: inf
ROOT
ATOM      1  C   UNL     1      19.259   2.276 -13.771  1.00  0.00     0.000 C 
ENDROOT
BRANCH   1   2
ATOM      2  C   UNL     1      18.524   1.879 -15.062  1.00  0.00     0.000 C 
BRANCH   2   3
ATOM      3  C   UNL     1      17.921   0.462 -14.983  1.00  0.00     0.000 C 
BRANCH   3   4
ATOM      4  C   UNL     1      17.721  -0.185 -16.368  1.00  0.00     0.000 C 
BRANCH   4   5
ATOM      5  C   UNL     1      18.864   0.106 -17.360  1.00  0.00     0.000 C 
BRANCH   5   6
ATOM      6  C   UNL     1      20.192   0.537 -16.716  1.00  0.00     0.000 C 
BRANCH   6   7
ATOM      7  C   UNL     1      21.310   0.738 -17.753  1.00  0.00     0.000 C 
BRANCH   7   8
ATOM      8  C   UNL     1      22.580  -0.037 -17.368  1.00  0.00     0.000 C 
BRANCH   8   9
ATOM      9  C   UNL     1      23.627  -0.052 -18.506  1.00  0.00     0.000 C 
BRANCH   9  10
ATOM     10  C   UNL     1      24.007  -1.463 -18.994  1.00  0.00     0.000 C 
BRANCH  10  11
ATOM     11  C   UNL     1      24.836  -2.301 -18.003  1.00  0.00     0.000 C 
BRANCH  11  12
ATOM     12  C   UNL     1      26.089  -2.977 -18.597  1.00  0.00     0.000 C 
BRANCH  12  13
ATOM     13  C   UNL     1      25.891  -3.641 -19.969  1.00  0.00     0.006 C 
BRANCH  13  14
ATOM     14  C   UNL     1      25.095  -4.951 -19.893  1.00  0.00     0.053 C 
BRANCH  14  15
ATOM     15  C   UNL     1      25.797  -6.031 -20.656  1.00  0.00     0.041 C 
ATOM     16  O   UNL     1      26.603  -5.736 -21.578  1.00  0.00    -0.550 OA
ATOM     17  O   UNL     1      25.615  -7.361 -20.298  1.00  0.00    -0.550 OA
ENDBRANCH  14  15
ENDBRANCH  13  14
ENDBRANCH  12  13
ENDBRANCH  11  12
ENDBRANCH  10  11
ENDBRANCH   9  10
ENDBRANCH   8   9
ENDBRANCH   7   8
ENDBRANCH   6   7
ENDBRANCH   5   6
ENDBRANCH   4   5
ENDBRANCH   3   4
ENDBRANCH   2   3
ENDBRANCH   1   2
BRANCH   1  18
ATOM     18  C   UNL     1      18.320   2.357 -12.558  1.00  0.00     0.000 C 
BRANCH  18  19
ATOM     19  C   UNL     1      18.394   3.735 -11.888  1.00  0.00     0.000 C 
BRANCH  19  20
ATOM     20  C   UNL     1      17.329   3.867 -10.788  1.00  0.00     0.000 C 
BRANCH  20  21
ATOM     21  C   UNL     1      17.076   5.322 -10.365  1.00  0.00     0.000 C 
BRANCH  21  22
ATOM     22  C   UNL     1      18.063   6.310 -11.013  1.00  0.00     0.000 C 
BRANCH  22  23
ATOM     23  C   UNL     1      19.049   6.927 -10.006  1.00  0.00     0.000 C 
BRANCH  23  24
ATOM     24  C   UNL     1      20.306   6.067  -9.761  1.00  0.00    -0.000 C 
BRANCH  24  25
ATOM     25  C   UNL     1      21.595   6.790 -10.185  1.00  0.00    -0.000 C 
BRANCH  25  26
ATOM     26  C   UNL     1      21.646   7.093 -11.693  1.00  0.00    -0.000 C 
BRANCH  26  27
ATOM     27  C   UNL     1      21.177   5.944 -12.610  1.00  0.00    -0.000 C 
BRANCH  27  28
ATOM     28  C   UNL     1      22.243   4.877 -12.934  1.00  0.00    -0.000 C 
BRANCH  28  29
ATOM     29  C   UNL     1      23.659   5.426 -13.179  1.00  0.00    -0.000 C 
BRANCH  29  30
ATOM     30  C   UNL     1      24.545   4.454 -13.971  1.00  0.00    -0.000 C 
BRANCH  30  31
ATOM     31  C   UNL     1      25.774   5.175 -14.536  1.00  0.00    -0.003 C 
ATOM     32  C   UNL     1      26.996   4.264 -14.543  1.00  0.00     0.004 C 
ENDBRANCH  30  31
ENDBRANCH  29  30
ENDBRANCH  28  29
ENDBRANCH  27  28
ENDBRANCH  26  27
ENDBRANCH  25  26
ENDBRANCH  24  25
ENDBRANCH  23  24
ENDBRANCH  22  23
ENDBRANCH  21  22
ENDBRANCH  20  21
ENDBRANCH  19  20
ENDBRANCH  18  19
ENDBRANCH   1  18
TORSDOF 28
ENDMDL
MODEL 4
REMARK VINA RESULT:     1.850      3.473      6.269
REMARK INTER + INTRA:           3.312
REMARK INTER:                   5.604
REMARK INTRA:                  -2.292
REMARK UNBOUND:                -1.567
REMARK SMILES CCCCCCCCCCCCCCCCCCCCCCCCCCCCCC(=O)[O-]
REMARK SMILES IDX 16 1 17 2 18 3 19 4 20 5 21 6 22 7 23 8 24 9 25 10 26 11
REMARK SMILES IDX 27 12 28 13 29 14 30 15 31 16 32 17 15 18 14 19 13 20 12 21
REMARK SMILES IDX 11 22 10 23 9 24 8 25 7 26 6 27 5 28 4 29 3 30 2 31 1 32
REMARK H PARENT
REMARK Flexibility Score: inf
ROOT
ATOM      1  C   UNL     1      21.423   5.985 -12.480  1.00  0.00     0.000 C 
ENDROOT
BRANCH   1   2
ATOM      2  C   UNL     1      21.595   7.099 -11.433  1.00  0.00     0.000 C 
BRANCH   2   3
ATOM      3  C   UNL     1      21.599   6.553  -9.991  1.00  0.00     0.000 C 
BRANCH   3   4
ATOM      4  C   UNL     1      20.258   5.908  -9.588  1.00  0.00     0.000 C 
BRANCH   4   5
ATOM      5  C   UNL     1      19.027   6.775  -9.918  1.00  0.00     0.000 C 
BRANCH   5   6
ATOM      6  C   UNL     1      18.062   6.168 -10.951  1.00  0.00     0.000 C 
BRANCH   6   7
ATOM      7  C   UNL     1      16.751   5.680 -10.314  1.00  0.00     0.000 C 
BRANCH   7   8
ATOM      8  C   UNL     1      16.411   4.247 -10.753  1.00  0.00     0.000 C 
BRANCH   8   9
ATOM      9  C   UNL     1      17.653   3.328 -10.773  1.00  0.00     0.000 C 
BRANCH   9  10
ATOM     10  C   UNL     1      17.858   2.573 -12.101  1.00  0.00     0.000 C 
BRANCH  10  11
ATOM     11  C   UNL     1      19.005   3.097 -12.984  1.00  0.00     0.000 C 
BRANCH  11  12
ATOM     12  C   UNL     1      19.270   2.288 -14.271  1.00  0.00     0.000 C 
BRANCH  12  13
ATOM     13  C   UNL     1      18.337   1.088 -14.498  1.00  0.00     0.006 C 
BRANCH  13  14
ATOM     14  C   UNL     1      18.178   0.724 -15.981  1.00  0.00     0.053 C 
BRANCH  14  15
ATOM     15  C   UNL     1      17.287  -0.470 -16.131  1.00  0.00     0.041 C 
ATOM     16  O   UNL     1      16.958  -0.877 -17.277  1.00  0.00    -0.550 OA
ATOM     17  O   UNL     1      16.881  -1.177 -15.006  1.00  0.00    -0.550 OA
ENDBRANCH  14  15
ENDBRANCH  13  14
ENDBRANCH  12  13
ENDBRANCH  11  12
ENDBRANCH  10  11
ENDBRANCH   9  10
ENDBRANCH   8   9
ENDBRANCH   7   8
ENDBRANCH   6   7
ENDBRANCH   5   6
ENDBRANCH   4   5
ENDBRANCH   3   4
ENDBRANCH   2   3
ENDBRANCH   1   2
BRANCH   1  18
ATOM     18  C   UNL     1      22.764   5.390 -12.935  1.00  0.00     0.000 C 
BRANCH  18  19
ATOM     19  C   UNL     1      23.798   6.491 -13.204  1.00  0.00     0.000 C 
BRANCH  19  20
ATOM     20  C   UNL     1      24.953   5.957 -14.065  1.00  0.00     0.000 C 
BRANCH  20  21
ATOM     21  C   UNL     1      25.056   4.425 -14.052  1.00  0.00     0.000 C 
BRANCH  21  22
ATOM     22  C   UNL     1      26.485   3.921 -14.327  1.00  0.00     0.000 C 
BRANCH  22  23
ATOM     23  C   UNL     1      26.519   2.587 -15.091  1.00  0.00     0.000 C 
BRANCH  23  24
ATOM     24  C   UNL     1      25.702   1.464 -14.419  1.00  0.00    -0.000 C 
BRANCH  24  25
ATOM     25  C   UNL     1      24.756   0.762 -15.407  1.00  0.00    -0.000 C 
BRANCH  25  26
ATOM     26  C   UNL     1      24.962  -0.763 -15.455  1.00  0.00    -0.000 C 
BRANCH  26  27
ATOM     27  C   UNL     1      24.125  -1.505 -16.517  1.00  0.00    -0.000 C 
BRANCH  27  28
ATOM     28  C   UNL     1      24.258  -0.970 -17.958  1.00  0.00    -0.000 C 
BRANCH  28  29
ATOM     29  C   UNL     1      24.241  -2.047 -19.057  1.00  0.00    -0.000 C 
BRANCH  29  30
ATOM     30  C   UNL     1      24.654  -3.432 -18.540  1.00  0.00    -0.000 C 
BRANCH  30  31
ATOM     31  C   UNL     1      25.365  -4.232 -19.636  1.00  0.00    -0.003 C 
ATOM     32  C   UNL     1      26.092  -3.312 -20.610  1.00  0.00     0.004 C 
ENDBRANCH  30  31
ENDBRANCH  29  30
ENDBRANCH  28  29
ENDBRANCH  27  28
ENDBRANCH  26  27
ENDBRANCH  25  26
ENDBRANCH  24  25
ENDBRANCH  23  24
ENDBRANCH  22  23
ENDBRANCH  21  22
ENDBRANCH  20  21
ENDBRANCH  19  20
ENDBRANCH  18  19
ENDBRANCH   1  18
TORSDOF 28
ENDMDL
MODEL 5
REMARK VINA RESULT:     2.043      3.716     10.746
REMARK INTER + INTRA:           3.821
REMARK INTER:                   4.913
REMARK INTRA:                  -1.092
REMARK UNBOUND:                -1.567
REMARK SMILES CCCCCCCCCCCCCCCCCCCCCCCCCCCCCC(=O)[O-]
REMARK SMILES IDX 16 1 17 2 18 3 19 4 20 5 21 6 22 7 23 8 24 9 25 10 26 11
REMARK SMILES IDX 27 12 28 13 29 14 30 15 31 16 32 17 15 18 14 19 13 20 12 21
REMARK SMILES IDX 11 22 10 23 9 24 8 25 7 26 6 27 5 28 4 29 3 30 2 31 1 32
REMARK H PARENT
REMARK Flexibility Score: inf
ROOT
ATOM      1  C   UNL     1      18.628   0.365 -16.628  1.00  0.00     0.000 C 
ENDROOT
BRANCH   1   2
ATOM      2  C   UNL     1      20.097   0.821 -16.631  1.00  0.00     0.000 C 
BRANCH   2   3
ATOM      3  C   UNL     1      20.789   0.562 -17.984  1.00  0.00     0.000 C 
BRANCH   3   4
ATOM      4  C   UNL     1      22.288   0.920 -17.970  1.00  0.00     0.000 C 
BRANCH   4   5
ATOM      5  C   UNL     1      23.219  -0.294 -18.164  1.00  0.00     0.000 C 
BRANCH   5   6
ATOM      6  C   UNL     1      24.022  -0.705 -16.918  1.00  0.00     0.000 C 
BRANCH   6   7
ATOM      7  C   UNL     1      24.152  -2.230 -16.781  1.00  0.00     0.000 C 
BRANCH   7   8
ATOM      8  C   UNL     1      25.497  -2.731 -17.331  1.00  0.00     0.000 C 
BRANCH   8   9
ATOM      9  C   UNL     1      25.438  -4.212 -17.772  1.00  0.00     0.000 C 
BRANCH   9  10
ATOM     10  C   UNL     1      24.341  -4.516 -18.811  1.00  0.00     0.000 C 
BRANCH  10  11
ATOM     11  C   UNL     1      24.000  -3.358 -19.765  1.00  0.00     0.000 C 
BRANCH  11  12
ATOM     12  C   UNL     1      25.213  -2.604 -20.349  1.00  0.00     0.000 C 
BRANCH  12  13
ATOM     13  C   UNL     1      26.405  -3.487 -20.753  1.00  0.00     0.006 C 
BRANCH  13  14
ATOM     14  C   UNL     1      26.104  -4.386 -21.959  1.00  0.00     0.053 C 
BRANCH  14  15
ATOM     15  C   UNL     1      26.563  -5.786 -21.693  1.00  0.00     0.041 C 
ATOM     16  O   UNL     1      27.695  -6.171 -22.093  1.00  0.00    -0.550 OA
ATOM     17  O   UNL     1      25.772  -6.642 -20.938  1.00  0.00    -0.550 OA
ENDBRANCH  14  15
ENDBRANCH  13  14
ENDBRANCH  12  13
ENDBRANCH  11  12
ENDBRANCH  10  11
ENDBRANCH   9  10
ENDBRANCH   8   9
ENDBRANCH   7   8
ENDBRANCH   6   7
ENDBRANCH   5   6
ENDBRANCH   4   5
ENDBRANCH   3   4
ENDBRANCH   2   3
ENDBRANCH   1   2
BRANCH   1  18
ATOM     18  C   UNL     1      17.937   0.606 -15.277  1.00  0.00     0.000 C 
BRANCH  18  19
ATOM     19  C   UNL     1      18.629   1.728 -14.492  1.00  0.00     0.000 C 
BRANCH  19  20
ATOM     20  C   UNL     1      18.231   1.683 -13.008  1.00  0.00     0.000 C 
BRANCH  20  21
ATOM     21  C   UNL     1      18.340   3.049 -12.313  1.00  0.00     0.000 C 
BRANCH  21  22
ATOM     22  C   UNL     1      17.281   3.244 -11.213  1.00  0.00     0.000 C 
BRANCH  22  23
ATOM     23  C   UNL     1      17.476   4.540 -10.409  1.00  0.00     0.000 C 
BRANCH  23  24
ATOM     24  C   UNL     1      17.322   5.823 -11.252  1.00  0.00    -0.000 C 
BRANCH  24  25
ATOM     25  C   UNL     1      18.575   6.713 -11.190  1.00  0.00    -0.000 C 
BRANCH  25  26
ATOM     26  C   UNL     1      19.106   6.901  -9.757  1.00  0.00    -0.000 C 
BRANCH  26  27
ATOM     27  C   UNL     1      20.467   6.234  -9.469  1.00  0.00    -0.000 C 
BRANCH  27  28
ATOM     28  C   UNL     1      21.704   7.005  -9.975  1.00  0.00    -0.000 C 
BRANCH  28  29
ATOM     29  C   UNL     1      22.445   6.348 -11.153  1.00  0.00    -0.000 C 
BRANCH  29  30
ATOM     30  C   UNL     1      21.597   6.291 -12.432  1.00  0.00    -0.000 C 
BRANCH  30  31
ATOM     31  C   UNL     1      21.462   4.849 -12.930  1.00  0.00    -0.003 C 
ATOM     32  C   UNL     1      20.335   4.719 -13.950  1.00  0.00     0.004 C 
ENDBRANCH  30  31
ENDBRANCH  29  30
ENDBRANCH  28  29
ENDBRANCH  27  28
ENDBRANCH  26  27
ENDBRANCH  25  26
ENDBRANCH  24  25
ENDBRANCH  23  24
ENDBRANCH  22  23
ENDBRANCH  21  22
ENDBRANCH  20  21
ENDBRANCH  19  20
ENDBRANCH  18  19
ENDBRANCH   1  18
TORSDOF 28
ENDMDL
MODEL 6
REMARK VINA RESULT:     2.050      3.694     11.258
REMARK INTER + INTRA:           3.838
REMARK INTER:                   3.906
REMARK INTRA:                  -0.068
REMARK UNBOUND:                -1.567
REMARK SMILES CCCCCCCCCCCCCCCCCCCCCCCCCCCCCC(=O)[O-]
REMARK SMILES IDX 16 1 17 2 18 3 19 4 20 5 21 6 22 7 23 8 24 9 25 10 26 11
REMARK SMILES IDX 27 12 28 13 29 14 30 15 31 16 32 17 15 18 14 19 13 20 12 21
REMARK SMILES IDX 11 22 10 23 9 24 8 25 7 26 6 27 5 28 4 29 3 30 2 31 1 32
REMARK H PARENT
REMARK Flexibility Score: inf
ROOT
ATOM      1  C   UNL     1      18.848   1.092 -15.454  1.00  0.00     0.000 C 
ENDROOT
BRANCH   1   2
ATOM      2  C   UNL     1      19.601   0.666 -16.726  1.00  0.00     0.000 C 
BRANCH   2   3
ATOM      3  C   UNL     1      21.061   1.161 -16.738  1.00  0.00     0.000 C 
BRANCH   3   4
ATOM      4  C   UNL     1      21.959   0.362 -17.704  1.00  0.00     0.000 C 
BRANCH   4   5
ATOM      5  C   UNL     1      23.349   0.029 -17.128  1.00  0.00     0.000 C 
BRANCH   5   6
ATOM      6  C   UNL     1      23.994  -1.252 -17.685  1.00  0.00     0.000 C 
BRANCH   6   7
ATOM      7  C   UNL     1      23.780  -1.406 -19.200  1.00  0.00     0.000 C 
BRANCH   7   8
ATOM      8  C   UNL     1      23.781  -2.885 -19.619  1.00  0.00     0.000 C 
BRANCH   8   9
ATOM      9  C   UNL     1      24.602  -3.770 -18.655  1.00  0.00     0.000 C 
BRANCH   9  10
ATOM     10  C   UNL     1      26.085  -3.368 -18.538  1.00  0.00     0.000 C 
BRANCH  10  11
ATOM     11  C   UNL     1      26.870  -3.363 -19.862  1.00  0.00     0.000 C 
BRANCH  11  12
ATOM     12  C   UNL     1      26.015  -3.219 -21.137  1.00  0.00     0.000 C 
BRANCH  12  13
ATOM     13  C   UNL     1      25.928  -4.476 -22.017  1.00  0.00     0.006 C 
BRANCH  13  14
ATOM     14  C   UNL     1      26.760  -5.647 -21.476  1.00  0.00     0.053 C 
BRANCH  14  15
ATOM     15  C   UNL     1      25.864  -6.706 -20.914  1.00  0.00     0.041 C 
ATOM     16  O   UNL     1      25.477  -6.641 -19.716  1.00  0.00    -0.550 OA
ATOM     17  O   UNL     1      25.396  -7.724 -21.734  1.00  0.00    -0.550 OA
ENDBRANCH  14  15
ENDBRANCH  13  14
ENDBRANCH  12  13
ENDBRANCH  11  12
ENDBRANCH  10  11
ENDBRANCH   9  10
ENDBRANCH   8   9
ENDBRANCH   7   8
ENDBRANCH   6   7
ENDBRANCH   5   6
ENDBRANCH   4   5
ENDBRANCH   3   4
ENDBRANCH   2   3
ENDBRANCH   1   2
BRANCH   1  18
ATOM     18  C   UNL     1      19.503   2.293 -14.755  1.00  0.00     0.000 C 
BRANCH  18  19
ATOM     19  C   UNL     1      19.000   2.438 -13.313  1.00  0.00     0.000 C 
BRANCH  19  20
ATOM     20  C   UNL     1      19.562   3.713 -12.664  1.00  0.00     0.000 C 
BRANCH  20  21
ATOM     21  C   UNL     1      20.373   4.578 -13.640  1.00  0.00     0.000 C 
BRANCH  21  22
ATOM     22  C   UNL     1      19.820   6.009 -13.769  1.00  0.00     0.000 C 
BRANCH  22  23
ATOM     23  C   UNL     1      20.621   7.043 -12.960  1.00  0.00     0.000 C 
BRANCH  23  24
ATOM     24  C   UNL     1      21.719   6.420 -12.072  1.00  0.00    -0.000 C 
BRANCH  24  25
ATOM     25  C   UNL     1      21.746   7.037 -10.664  1.00  0.00    -0.000 C 
BRANCH  25  26
ATOM     26  C   UNL     1      21.613   5.987  -9.545  1.00  0.00    -0.000 C 
BRANCH  26  27
ATOM     27  C   UNL     1      20.168   5.559  -9.217  1.00  0.00    -0.000 C 
BRANCH  27  28
ATOM     28  C   UNL     1      19.066   6.533  -9.681  1.00  0.00    -0.000 C 
BRANCH  28  29
ATOM     29  C   UNL     1      18.012   5.923 -10.622  1.00  0.00    -0.000 C 
BRANCH  29  30
ATOM     30  C   UNL     1      18.130   4.397 -10.739  1.00  0.00    -0.000 C 
BRANCH  30  31
ATOM     31  C   UNL     1      16.784   3.724 -10.450  1.00  0.00    -0.003 C 
ATOM     32  C   UNL     1      15.645   4.737 -10.457  1.00  0.00     0.004 C 
ENDBRANCH  30  31
ENDBRANCH  29  30
ENDBRANCH  28  29
ENDBRANCH  27  28
ENDBRANCH  26  27
ENDBRANCH  25  26
ENDBRANCH  24  25
ENDBRANCH  23  24
ENDBRANCH  22  23
ENDBRANCH  21  22
ENDBRANCH  20  21
ENDBRANCH  19  20
ENDBRANCH  18  19
ENDBRANCH   1  18
TORSDOF 28
ENDMDL
MODEL 7
REMARK VINA RESULT:     2.309      3.203      6.051
REMARK INTER + INTRA:           4.522
REMARK INTER:                   6.156
REMARK INTRA:                  -1.634
REMARK UNBOUND:                -1.567
REMARK SMILES CCCCCCCCCCCCCCCCCCCCCCCCCCCCCC(=O)[O-]
REMARK SMILES IDX 16 1 17 2 18 3 19 4 20 5 21 6 22 7 23 8 24 9 25 10 26 11
REMARK SMILES IDX 27 12 28 13 29 14 30 15 31 16 32 17 15 18 14 19 13 20 12 21
REMARK SMILES IDX 11 22 10 23 9 24 8 25 7 26 6 27 5 28 4 29 3 30 2 31 1 32
REMARK H PARENT
REMARK Flexibility Score: inf
ROOT
ATOM      1  C   UNL     1      23.831   6.488 -13.383  1.00  0.00     0.000 C 
ENDROOT
BRANCH   1   2
ATOM      2  C   UNL     1      22.933   5.362 -12.843  1.00  0.00     0.000 C 
BRANCH   2   3
ATOM      3  C   UNL     1      21.547   5.875 -12.405  1.00  0.00     0.000 C 
BRANCH   3   4
ATOM      4  C   UNL     1      21.606   6.775 -11.155  1.00  0.00     0.000 C 
BRANCH   4   5
ATOM      5  C   UNL     1      21.372   6.019  -9.832  1.00  0.00     0.000 C 
BRANCH   5   6
ATOM      6  C   UNL     1      19.896   5.784  -9.469  1.00  0.00     0.000 C 
BRANCH   6   7
ATOM      7  C   UNL     1      18.955   6.784 -10.159  1.00  0.00     0.000 C 
BRANCH   7   8
ATOM      8  C   UNL     1      18.073   6.092 -11.211  1.00  0.00     0.000 C 
BRANCH   8   9
ATOM      9  C   UNL     1      17.134   5.034 -10.587  1.00  0.00     0.000 C 
BRANCH   9  10
ATOM     10  C   UNL     1      17.479   3.582 -10.968  1.00  0.00     0.000 C 
BRANCH  10  11
ATOM     11  C   UNL     1      18.150   3.404 -12.342  1.00  0.00     0.000 C 
BRANCH  11  12
ATOM     12  C   UNL     1      18.359   1.943 -12.791  1.00  0.00     0.000 C 
BRANCH  12  13
ATOM     13  C   UNL     1      18.981   1.766 -14.186  1.00  0.00     0.006 C 
BRANCH  13  14
ATOM     14  C   UNL     1      17.932   1.597 -15.293  1.00  0.00     0.053 C 
BRANCH  14  15
ATOM     15  C   UNL     1      17.587   0.151 -15.467  1.00  0.00     0.041 C 
ATOM     16  O   UNL     1      17.017  -0.482 -14.538  1.00  0.00    -0.550 OA
ATOM     17  O   UNL     1      17.829  -0.478 -16.681  1.00  0.00    -0.550 OA
ENDBRANCH  14  15
ENDBRANCH  13  14
ENDBRANCH  12  13
ENDBRANCH  11  12
ENDBRANCH  10  11
ENDBRANCH   9  10
ENDBRANCH   8   9
ENDBRANCH   7   8
ENDBRANCH   6   7
ENDBRANCH   5   6
ENDBRANCH   4   5
ENDBRANCH   3   4
ENDBRANCH   2   3
ENDBRANCH   1   2
BRANCH   1  18
ATOM     18  C   UNL     1      24.990   5.959 -14.241  1.00  0.00     0.000 C 
BRANCH  18  19
ATOM     19  C   UNL     1      25.091   4.430 -14.156  1.00  0.00     0.000 C 
BRANCH  19  20
ATOM     20  C   UNL     1      26.529   3.962 -14.430  1.00  0.00     0.000 C 
BRANCH  20  21
ATOM     21  C   UNL     1      26.607   2.505 -14.911  1.00  0.00     0.000 C 
BRANCH  21  22
ATOM     22  C   UNL     1      25.322   1.710 -14.613  1.00  0.00     0.000 C 
BRANCH  22  23
ATOM     23  C   UNL     1      25.264   0.359 -15.344  1.00  0.00     0.000 C 
BRANCH  23  24
ATOM     24  C   UNL     1      23.931   0.106 -16.079  1.00  0.00    -0.000 C 
BRANCH  24  25
ATOM     25  C   UNL     1      24.117  -0.749 -17.343  1.00  0.00    -0.000 C 
BRANCH  25  26
ATOM     26  C   UNL     1      24.907  -2.044 -17.081  1.00  0.00    -0.000 C 
BRANCH  26  27
ATOM     27  C   UNL     1      24.614  -3.200 -18.060  1.00  0.00    -0.000 C 
BRANCH  27  28
ATOM     28  C   UNL     1      25.770  -3.571 -19.011  1.00  0.00    -0.000 C 
BRANCH  28  29
ATOM     29  C   UNL     1      25.336  -4.053 -20.407  1.00  0.00    -0.000 C 
BRANCH  29  30
ATOM     30  C   UNL     1      26.525  -4.404 -21.312  1.00  0.00    -0.000 C 
BRANCH  30  31
ATOM     31  C   UNL     1      26.584  -5.913 -21.571  1.00  0.00    -0.003 C 
ATOM     32  C   UNL     1      25.710  -6.679 -20.584  1.00  0.00     0.004 C 
ENDBRANCH  30  31
ENDBRANCH  29  30
ENDBRANCH  28  29
ENDBRANCH  27  28
ENDBRANCH  26  27
ENDBRANCH  25  26
ENDBRANCH  24  25
ENDBRANCH  23  24
ENDBRANCH  22  23
ENDBRANCH  21  22
ENDBRANCH  20  21
ENDBRANCH  19  20
ENDBRANCH  18  19
ENDBRANCH   1  18
TORSDOF 28
ENDMDL
MODEL 8
REMARK VINA RESULT:     2.373      3.360      9.842
REMARK INTER + INTRA:           4.689
REMARK INTER:                   6.317
REMARK INTRA:                  -1.628
REMARK UNBOUND:                -1.567
REMARK SMILES CCCCCCCCCCCCCCCCCCCCCCCCCCCCCC(=O)[O-]
REMARK SMILES IDX 16 1 17 2 18 3 19 4 20 5 21 6 22 7 23 8 24 9 25 10 26 11
REMARK SMILES IDX 27 12 28 13 29 14 30 15 31 16 32 17 15 18 14 19 13 20 12 21
REMARK SMILES IDX 11 22 10 23 9 24 8 25 7 26 6 27 5 28 4 29 3 30 2 31 1 32
REMARK H PARENT
REMARK Flexibility Score: inf
ROOT
ATOM      1  C   UNL     1      23.363   5.562 -12.963  1.00  0.00     0.000 C 
ENDROOT
BRANCH   1   2
ATOM      2  C   UNL     1      24.369   5.376 -14.112  1.00  0.00     0.000 C 
BRANCH   2   3
ATOM      3  C   UNL     1      25.586   4.525 -13.696  1.00  0.00     0.000 C 
BRANCH   3   4
ATOM      4  C   UNL     1      25.852   3.349 -14.655  1.00  0.00     0.000 C 
BRANCH   4   5
ATOM      5  C   UNL     1      24.723   2.300 -14.682  1.00  0.00     0.000 C 
BRANCH   5   6
ATOM      6  C   UNL     1      25.187   0.847 -14.878  1.00  0.00     0.000 C 
BRANCH   6   7
ATOM      7  C   UNL     1      24.310   0.079 -15.879  1.00  0.00     0.000 C 
BRANCH   7   8
ATOM      8  C   UNL     1      24.743  -1.391 -15.994  1.00  0.00     0.000 C 
BRANCH   8   9
ATOM      9  C   UNL     1      24.624  -1.928 -17.439  1.00  0.00     0.000 C 
BRANCH   9  10
ATOM     10  C   UNL     1      25.162  -3.359 -17.627  1.00  0.00     0.000 C 
BRANCH  10  11
ATOM     11  C   UNL     1      25.026  -3.931 -19.049  1.00  0.00     0.000 C 
BRANCH  11  12
ATOM     12  C   UNL     1      25.425  -2.970 -20.189  1.00  0.00     0.000 C 
BRANCH  12  13
ATOM     13  C   UNL     1      26.517  -3.491 -21.137  1.00  0.00     0.006 C 
BRANCH  13  14
ATOM     14  C   UNL     1      26.010  -4.575 -22.098  1.00  0.00     0.053 C 
BRANCH  14  15
ATOM     15  C   UNL     1      26.587  -5.907 -21.730  1.00  0.00     0.041 C 
ATOM     16  O   UNL     1      27.748  -6.222 -22.106  1.00  0.00    -0.550 OA
ATOM     17  O   UNL     1      25.870  -6.770 -20.911  1.00  0.00    -0.550 OA
ENDBRANCH  14  15
ENDBRANCH  13  14
ENDBRANCH  12  13
ENDBRANCH  11  12
ENDBRANCH  10  11
ENDBRANCH   9  10
ENDBRANCH   8   9
ENDBRANCH   7   8
ENDBRANCH   6   7
ENDBRANCH   5   6
ENDBRANCH   4   5
ENDBRANCH   3   4
ENDBRANCH   2   3
ENDBRANCH   1   2
BRANCH   1  18
ATOM     18  C   UNL     1      22.908   7.021 -12.806  1.00  0.00     0.000 C 
BRANCH  18  19
ATOM     19  C   UNL     1      21.647   7.119 -11.938  1.00  0.00     0.000 C 
BRANCH  19  20
ATOM     20  C   UNL     1      21.992   6.938 -10.451  1.00  0.00     0.000 C 
BRANCH  20  21
ATOM     21  C   UNL     1      20.797   6.466  -9.609  1.00  0.00     0.000 C 
BRANCH  21  22
ATOM     22  C   UNL     1      19.469   7.113 -10.043  1.00  0.00     0.000 C 
BRANCH  22  23
ATOM     23  C   UNL     1      18.248   6.213  -9.790  1.00  0.00     0.000 C 
BRANCH  23  24
ATOM     24  C   UNL     1      17.755   5.466 -11.047  1.00  0.00    -0.000 C 
BRANCH  24  25
ATOM     25  C   UNL     1      18.832   4.533 -11.626  1.00  0.00    -0.000 C 
BRANCH  25  26
ATOM     26  C   UNL     1      19.272   4.933 -13.047  1.00  0.00    -0.000 C 
BRANCH  26  27
ATOM     27  C   UNL     1      20.516   4.193 -13.581  1.00  0.00    -0.000 C 
BRANCH  27  28
ATOM     28  C   UNL     1      20.228   2.908 -14.384  1.00  0.00    -0.000 C 
BRANCH  28  29
ATOM     29  C   UNL     1      18.890   2.222 -14.059  1.00  0.00    -0.000 C 
BRANCH  29  30
ATOM     30  C   UNL     1      18.489   1.172 -15.104  1.00  0.00    -0.000 C 
BRANCH  30  31
ATOM     31  C   UNL     1      17.454   0.199 -14.529  1.00  0.00    -0.003 C 
ATOM     32  C   UNL     1      17.072  -0.869 -15.548  1.00  0.00     0.004 C 
ENDBRANCH  30  31
ENDBRANCH  29  30
ENDBRANCH  28  29
ENDBRANCH  27  28
ENDBRANCH  26  27
ENDBRANCH  25  26
ENDBRANCH  24  25
ENDBRANCH  23  24
ENDBRANCH  22  23
ENDBRANCH  21  22
ENDBRANCH  20  21
ENDBRANCH  19  20
ENDBRANCH  18  19
ENDBRANCH   1  18
TORSDOF 28
ENDMDL
MODEL 9
REMARK VINA RESULT:     2.501      3.792      6.178
REMARK INTER + INTRA:           5.027
REMARK INTER:                   6.791
REMARK INTRA:                  -1.764
REMARK UNBOUND:                -1.567
REMARK SMILES CCCCCCCCCCCCCCCCCCCCCCCCCCCCCC(=O)[O-]
REMARK SMILES IDX 16 1 17 2 18 3 19 4 20 5 21 6 22 7 23 8 24 9 25 10 26 11
REMARK SMILES IDX 27 12 28 13 29 14 30 15 31 16 32 17 15 18 14 19 13 20 12 21
REMARK SMILES IDX 11 22 10 23 9 24 8 25 7 26 6 27 5 28 4 29 3 30 2 31 1 32
REMARK H PARENT
REMARK Flexibility Score: inf
ROOT
ATOM      1  C   UNL     1      20.088   0.767 -17.175  1.00  0.00     0.000 C 
ENDROOT
BRANCH   1   2
ATOM      2  C   UNL     1      19.385   0.885 -15.812  1.00  0.00     0.000 C 
BRANCH   2   3
ATOM      3  C   UNL     1      19.658   2.238 -15.125  1.00  0.00     0.000 C 
BRANCH   3   4
ATOM      4  C   UNL     1      19.042   2.332 -13.716  1.00  0.00     0.000 C 
BRANCH   4   5
ATOM      5  C   UNL     1      19.485   3.579 -12.925  1.00  0.00     0.000 C 
BRANCH   5   6
ATOM      6  C   UNL     1      20.443   4.519 -13.675  1.00  0.00     0.000 C 
BRANCH   6   7
ATOM      7  C   UNL     1      21.574   5.044 -12.776  1.00  0.00     0.000 C 
BRANCH   7   8
ATOM      8  C   UNL     1      21.506   6.572 -12.620  1.00  0.00     0.000 C 
BRANCH   8   9
ATOM      9  C   UNL     1      21.954   7.040 -11.217  1.00  0.00     0.000 C 
BRANCH   9  10
ATOM     10  C   UNL     1      21.997   5.919 -10.161  1.00  0.00     0.000 C 
BRANCH  10  11
ATOM     11  C   UNL     1      20.884   5.972  -9.100  1.00  0.00     0.000 C 
BRANCH  11  12
ATOM     12  C   UNL     1      19.476   6.303  -9.635  1.00  0.00     0.000 C 
BRANCH  12  13
ATOM     13  C   UNL     1      18.715   5.124 -10.262  1.00  0.00     0.006 C 
BRANCH  13  14
ATOM     14  C   UNL     1      17.333   5.518 -10.800  1.00  0.00     0.053 C 
BRANCH  14  15
ATOM     15  C   UNL     1      16.449   4.315 -10.897  1.00  0.00     0.041 C 
ATOM     16  O   UNL     1      15.235   4.442 -11.214  1.00  0.00    -0.550 OA
ATOM     17  O   UNL     1      16.982   3.046 -10.710  1.00  0.00    -0.550 OA
ENDBRANCH  14  15
ENDBRANCH  13  14
ENDBRANCH  12  13
ENDBRANCH  11  12
ENDBRANCH  10  11
ENDBRANCH   9  10
ENDBRANCH   8   9
ENDBRANCH   7   8
ENDBRANCH   6   7
ENDBRANCH   5   6
ENDBRANCH   4   5
ENDBRANCH   3   4
ENDBRANCH   2   3
ENDBRANCH   1   2
BRANCH   1  18
ATOM     18  C   UNL     1      21.620   0.778 -17.053  1.00  0.00     0.000 C 
BRANCH  18  19
ATOM     19  C   UNL     1      22.277   0.046 -18.230  1.00  0.00     0.000 C 
BRANCH  19  20
ATOM     20  C   UNL     1      23.774  -0.177 -17.968  1.00  0.00     0.000 C 
BRANCH  20  21
ATOM     21  C   UNL     1      24.150  -0.060 -16.483  1.00  0.00     0.000 C 
BRANCH  21  22
ATOM     22  C   UNL     1      24.640  -1.392 -15.886  1.00  0.00     0.000 C 
BRANCH  22  23
ATOM     23  C   UNL     1      24.298  -2.609 -16.761  1.00  0.00     0.000 C 
BRANCH  23  24
ATOM     24  C   UNL     1      25.526  -3.255 -17.435  1.00  0.00    -0.000 C 
BRANCH  24  25
ATOM     25  C   UNL     1      25.184  -4.596 -18.105  1.00  0.00    -0.000 C 
BRANCH  25  26
ATOM     26  C   UNL     1      23.887  -4.539 -18.933  1.00  0.00    -0.000 C 
BRANCH  26  27
ATOM     27  C   UNL     1      23.619  -3.195 -19.642  1.00  0.00    -0.000 C 
BRANCH  27  28
ATOM     28  C   UNL     1      24.282  -3.032 -21.025  1.00  0.00    -0.000 C 
BRANCH  28  29
ATOM     29  C   UNL     1      25.784  -2.699 -20.993  1.00  0.00    -0.000 C 
BRANCH  29  30
ATOM     30  C   UNL     1      26.660  -3.929 -20.713  1.00  0.00    -0.000 C 
BRANCH  30  31
ATOM     31  C   UNL     1      26.562  -4.939 -21.861  1.00  0.00    -0.003 C 
ATOM     32  C   UNL     1      26.171  -6.321 -21.350  1.00  0.00     0.004 C 
ENDBRANCH  30  31
ENDBRANCH  29  30
ENDBRANCH  28  29
ENDBRANCH  27  28
ENDBRANCH  26  27
ENDBRANCH  25  26
ENDBRANCH  24  25
ENDBRANCH  23  24
ENDBRANCH  22  23
ENDBRANCH  21  22
ENDBRANCH  20  21
ENDBRANCH  19  20
ENDBRANCH  18  19
ENDBRANCH   1  18
TORSDOF 28
ENDMDL
