MODEL 1
REMARK VINA RESULT:    -6.287      0.000      0.000
REMARK INTER + INTRA:          -7.675
REMARK INTER:                  -7.389
REMARK INTRA:                  -0.286
REMARK UNBOUND:                -0.286
REMARK SMILES O=c1cc(-c2ccc(O)c(O)c2)oc2cc(O)cc(O)c12
REMARK SMILES IDX 4 1 3 2 2 3 1 4 21 5 19 6 18 7 16 8 15 9 14 10 13 11 5 12
REMARK SMILES IDX 6 13 7 14 8 15 12 16 10 17 9 18 11 20 20 22 17 24
REMARK H PARENT 9 19 11 21 20 23 17 25
REMARK Flexibility Score: inf
ROOT
ATOM      1  C   UNL     1      45.578 -29.303 -30.091  1.00  0.00     0.138 A 
ATOM      2  C   UNL     1      46.362 -29.688 -28.996  1.00  0.00     0.100 A 
ATOM      3  C   UNL     1      47.753 -29.615 -29.083  1.00  0.00     0.197 A 
ATOM      4  O   UNL     1      48.428 -29.908 -28.062  1.00  0.00    -0.289 OA
ATOM      5  C   UNL     1      48.361 -29.183 -30.286  1.00  0.00     0.107 A 
ATOM      6  C   UNL     1      49.769 -29.107 -30.503  1.00  0.00     0.134 A 
ATOM      7  C   UNL     1      50.255 -28.555 -31.695  1.00  0.00     0.093 A 
ATOM      8  C   UNL     1      49.383 -28.130 -32.701  1.00  0.00     0.123 A 
ATOM      9  C   UNL     1      48.007 -28.250 -32.519  1.00  0.00     0.094 A 
ATOM     10  C   UNL     1      47.490 -28.766 -31.328  1.00  0.00     0.146 A 
ATOM     11  O   UNL     1      46.172 -28.849 -31.189  1.00  0.00    -0.456 OA
ENDROOT
BRANCH   1  12
ATOM     12  C   UNL     1      44.094 -29.362 -30.053  1.00  0.00     0.021 A 
ATOM     13  C   UNL     1      43.300 -28.462 -30.789  1.00  0.00     0.016 A 
ATOM     14  C   UNL     1      41.906 -28.535 -30.727  1.00  0.00     0.051 A 
ATOM     15  C   UNL     1      41.281 -29.499 -29.926  1.00  0.00     0.157 A 
ATOM     16  C   UNL     1      43.459 -30.318 -29.240  1.00  0.00     0.062 A 
ATOM     17  C   UNL     1      42.063 -30.393 -29.177  1.00  0.00     0.158 A 
BRANCH  15  18
ATOM     18  O   UNL     1      39.891 -29.568 -29.868  1.00  0.00    -0.504 OA
ATOM     19  H   UNL     1      39.306 -29.036 -30.502  1.00  0.00     0.293 HD
ENDBRANCH  15  18
BRANCH  17  20
ATOM     20  O   UNL     1      41.473 -31.362 -28.366  1.00  0.00    -0.504 OA
ATOM     21  H   UNL     1      40.500 -31.627 -28.466  1.00  0.00     0.293 HD
ENDBRANCH  17  20
ENDBRANCH   1  12
BRANCH   6  22
ATOM     22  O   UNL     1      50.725 -29.581 -29.600  1.00  0.00    -0.507 OA
ATOM     23  H   UNL     1      50.892 -30.554 -29.393  1.00  0.00     0.293 HD
ENDBRANCH   6  22
BRANCH   8  24
ATOM     24  O   UNL     1      49.875 -27.595 -33.889  1.00  0.00    -0.508 OA
ATOM     25  H   UNL     1      49.369 -27.688 -34.761  1.00  0.00     0.293 HD
ENDBRANCH   8  24
TORSDOF 5
ENDMDL
MODEL 2
REMARK VINA RESULT:    -6.282      1.413      6.894
REMARK INTER + INTRA:          -7.670
REMARK INTER:                  -7.357
REMARK INTRA:                  -0.313
REMARK UNBOUND:                -0.286
REMARK SMILES O=c1cc(-c2ccc(O)c(O)c2)oc2cc(O)cc(O)c12
REMARK SMILES IDX 4 1 3 2 2 3 1 4 21 5 19 6 18 7 16 8 15 9 14 10 13 11 5 12
REMARK SMILES IDX 6 13 7 14 8 15 12 16 10 17 9 18 11 20 20 22 17 24
REMARK H PARENT 9 19 11 21 20 23 17 25
REMARK Flexibility Score: inf
ROOT
ATOM      1  C   UNL     1      46.542 -29.531 -30.189  1.00  0.00     0.138 A 
ATOM      2  C   UNL     1      46.535 -30.482 -29.160  1.00  0.00     0.100 A 
ATOM      3  C   UNL     1      45.325 -30.853 -28.572  1.00  0.00     0.197 A 
ATOM      4  O   UNL     1      45.344 -31.754 -27.694  1.00  0.00    -0.289 OA
ATOM      5  C   UNL     1      44.120 -30.244 -28.996  1.00  0.00     0.107 A 
ATOM      6  C   UNL     1      42.833 -30.514 -28.441  1.00  0.00     0.134 A 
ATOM      7  C   UNL     1      41.697 -29.937 -29.021  1.00  0.00     0.093 A 
ATOM      8  C   UNL     1      41.806 -29.053 -30.098  1.00  0.00     0.123 A 
ATOM      9  C   UNL     1      43.063 -28.742 -30.611  1.00  0.00     0.094 A 
ATOM     10  C   UNL     1      44.213 -29.327 -30.077  1.00  0.00     0.146 A 
ATOM     11  O   UNL     1      45.391 -29.015 -30.607  1.00  0.00    -0.456 OA
ENDROOT
BRANCH   1  12
ATOM     12  C   UNL     1      47.800 -29.098 -30.849  1.00  0.00     0.021 A 
ATOM     13  C   UNL     1      49.056 -29.281 -30.238  1.00  0.00     0.016 A 
ATOM     14  C   UNL     1      50.222 -28.856 -30.879  1.00  0.00     0.051 A 
ATOM     15  C   UNL     1      50.158 -28.234 -32.132  1.00  0.00     0.157 A 
ATOM     16  C   UNL     1      47.742 -28.461 -32.102  1.00  0.00     0.062 A 
ATOM     17  C   UNL     1      48.910 -28.035 -32.745  1.00  0.00     0.158 A 
BRANCH  15  18
ATOM     18  O   UNL     1      51.324 -27.812 -32.767  1.00  0.00    -0.504 OA
ATOM     19  H   UNL     1      52.239 -27.994 -32.371  1.00  0.00     0.293 HD
ENDBRANCH  15  18
BRANCH  17  20
ATOM     20  O   UNL     1      48.809 -27.417 -33.991  1.00  0.00    -0.504 OA
ATOM     21  H   UNL     1      47.970 -26.929 -34.283  1.00  0.00     0.293 HD
ENDBRANCH  17  20
ENDBRANCH   1  12
BRANCH   6  22
ATOM     22  O   UNL     1      42.621 -31.315 -27.315  1.00  0.00    -0.507 OA
ATOM     23  H   UNL     1      43.182 -31.292 -26.477  1.00  0.00     0.293 HD
ENDBRANCH   6  22
BRANCH   8  24
ATOM     24  O   UNL     1      40.671 -28.472 -30.658  1.00  0.00    -0.508 OA
ATOM     25  H   UNL     1      40.736 -27.676 -31.282  1.00  0.00     0.293 HD
ENDBRANCH   8  24
TORSDOF 5
ENDMDL
MODEL 3
REMARK VINA RESULT:    -6.091     14.866     16.016
REMARK INTER + INTRA:          -7.445
REMARK INTER:                  -7.145
REMARK INTRA:                  -0.300
REMARK UNBOUND:                -0.286
REMARK SMILES O=c1cc(-c2ccc(O)c(O)c2)oc2cc(O)cc(O)c12
REMARK SMILES IDX 4 1 3 2 2 3 1 4 21 5 19 6 18 7 16 8 15 9 14 10 13 11 5 12
REMARK SMILES IDX 6 13 7 14 8 15 12 16 10 17 9 18 11 20 20 22 17 24
REMARK H PARENT 9 19 11 21 20 23 17 25
REMARK Flexibility Score: inf
ROOT
ATOM      1  C   UNL     1      55.794 -40.558 -25.883  1.00  0.00     0.138 A 
ATOM      2  C   UNL     1      56.017 -41.941 -25.895  1.00  0.00     0.100 A 
ATOM      3  C   UNL     1      56.227 -42.595 -27.109  1.00  0.00     0.197 A 
ATOM      4  O   UNL     1      56.487 -43.826 -27.083  1.00  0.00    -0.289 OA
ATOM      5  C   UNL     1      56.182 -41.864 -28.320  1.00  0.00     0.107 A 
ATOM      6  C   UNL     1      56.341 -42.432 -29.619  1.00  0.00     0.134 A 
ATOM      7  C   UNL     1      56.393 -41.592 -30.738  1.00  0.00     0.093 A 
ATOM      8  C   UNL     1      56.231 -40.209 -30.610  1.00  0.00     0.123 A 
ATOM      9  C   UNL     1      56.021 -39.652 -29.352  1.00  0.00     0.094 A 
ATOM     10  C   UNL     1      55.998 -40.459 -28.212  1.00  0.00     0.146 A 
ATOM     11  O   UNL     1      55.810 -39.886 -27.029  1.00  0.00    -0.456 OA
ENDROOT
BRANCH   1  12
ATOM     12  C   UNL     1      55.563 -39.811 -24.619  1.00  0.00     0.021 A 
ATOM     13  C   UNL     1      54.797 -40.354 -23.570  1.00  0.00     0.016 A 
ATOM     14  C   UNL     1      54.588 -39.624 -22.397  1.00  0.00     0.051 A 
ATOM     15  C   UNL     1      55.132 -38.342 -22.252  1.00  0.00     0.157 A 
ATOM     16  C   UNL     1      56.095 -38.517 -24.473  1.00  0.00     0.062 A 
ATOM     17  C   UNL     1      55.887 -37.786 -23.298  1.00  0.00     0.158 A 
BRANCH  15  18
ATOM     18  O   UNL     1      54.922 -37.619 -21.080  1.00  0.00    -0.504 OA
ATOM     19  H   UNL     1      54.970 -36.607 -21.064  1.00  0.00     0.293 HD
ENDBRANCH  15  18
BRANCH  17  20
ATOM     20  O   UNL     1      56.439 -36.510 -23.189  1.00  0.00    -0.504 OA
ATOM     21  H   UNL     1      57.438 -36.362 -23.098  1.00  0.00     0.293 HD
ENDBRANCH  17  20
ENDBRANCH   1  12
BRANCH   6  22
ATOM     22  O   UNL     1      56.427 -43.806 -29.866  1.00  0.00    -0.507 OA
ATOM     23  H   UNL     1      57.200 -44.393 -29.595  1.00  0.00     0.293 HD
ENDBRANCH   6  22
BRANCH   8  24
ATOM     24  O   UNL     1      56.269 -39.383 -31.731  1.00  0.00    -0.508 OA
ATOM     25  H   UNL     1      56.747 -39.662 -32.579  1.00  0.00     0.293 HD
ENDBRANCH   8  24
TORSDOF 5
ENDMDL
MODEL 4
REMARK VINA RESULT:    -6.075      1.827      3.857
REMARK INTER + INTRA:          -7.426
REMARK INTER:                  -7.138
REMARK INTRA:                  -0.288
REMARK UNBOUND:                -0.286
REMARK SMILES O=c1cc(-c2ccc(O)c(O)c2)oc2cc(O)cc(O)c12
REMARK SMILES IDX 4 1 3 2 2 3 1 4 21 5 19 6 18 7 16 8 15 9 14 10 13 11 5 12
REMARK SMILES IDX 6 13 7 14 8 15 12 16 10 17 9 18 11 20 20 22 17 24
REMARK H PARENT 9 19 11 21 20 23 17 25
REMARK Flexibility Score: inf
ROOT
ATOM      1  C   UNL     1      47.971 -29.167 -30.750  1.00  0.00     0.138 A 
ATOM      2  C   UNL     1      48.323 -28.437 -31.893  1.00  0.00     0.100 A 
ATOM      3  C   UNL     1      49.670 -28.262 -32.211  1.00  0.00     0.197 A 
ATOM      4  O   UNL     1      49.955 -27.655 -33.276  1.00  0.00    -0.289 OA
ATOM      5  C   UNL     1      50.670 -28.795 -31.363  1.00  0.00     0.107 A 
ATOM      6  C   UNL     1      52.074 -28.645 -31.565  1.00  0.00     0.134 A 
ATOM      7  C   UNL     1      52.969 -29.315 -30.722  1.00  0.00     0.093 A 
ATOM      8  C   UNL     1      52.511 -30.082 -29.648  1.00  0.00     0.123 A 
ATOM      9  C   UNL     1      51.143 -30.191 -29.410  1.00  0.00     0.094 A 
ATOM     10  C   UNL     1      50.223 -29.562 -30.253  1.00  0.00     0.146 A 
ATOM     11  O   UNL     1      48.927 -29.703 -30.000  1.00  0.00    -0.456 OA
ENDROOT
BRANCH   1  12
ATOM     12  C   UNL     1      46.553 -29.382 -30.363  1.00  0.00     0.021 A 
ATOM     13  C   UNL     1      46.157 -30.496 -29.598  1.00  0.00     0.016 A 
ATOM     14  C   UNL     1      44.814 -30.678 -29.256  1.00  0.00     0.051 A 
ATOM     15  C   UNL     1      43.844 -29.760 -29.677  1.00  0.00     0.157 A 
ATOM     16  C   UNL     1      45.571 -28.471 -30.794  1.00  0.00     0.062 A 
ATOM     17  C   UNL     1      44.226 -28.652 -30.452  1.00  0.00     0.158 A 
BRANCH  15  18
ATOM     18  O   UNL     1      42.507 -29.946 -29.334  1.00  0.00    -0.504 OA
ATOM     19  H   UNL     1      41.822 -29.209 -29.450  1.00  0.00     0.293 HD
ENDBRANCH  15  18
BRANCH  17  20
ATOM     20  O   UNL     1      43.285 -27.721 -30.891  1.00  0.00    -0.504 OA
ATOM     21  H   UNL     1      42.293 -27.928 -30.912  1.00  0.00     0.293 HD
ENDBRANCH  17  20
ENDBRANCH   1  12
BRANCH   6  22
ATOM     22  O   UNL     1      52.637 -27.834 -32.556  1.00  0.00    -0.507 OA
ATOM     23  H   UNL     1      53.623 -27.640 -32.651  1.00  0.00     0.293 HD
ENDBRANCH   6  22
BRANCH   8  24
ATOM     24  O   UNL     1      53.408 -30.734 -28.806  1.00  0.00    -0.508 OA
ATOM     25  H   UNL     1      53.921 -30.234 -28.089  1.00  0.00     0.293 HD
ENDBRANCH   8  24
TORSDOF 5
ENDMDL
MODEL 5
REMARK VINA RESULT:    -5.887      3.560      8.740
REMARK INTER + INTRA:          -7.205
REMARK INTER:                  -6.911
REMARK INTRA:                  -0.294
REMARK UNBOUND:                -0.286
REMARK SMILES O=c1cc(-c2ccc(O)c(O)c2)oc2cc(O)cc(O)c12
REMARK SMILES IDX 4 1 3 2 2 3 1 4 21 5 19 6 18 7 16 8 15 9 14 10 13 11 5 12
REMARK SMILES IDX 6 13 7 14 8 15 12 16 10 17 9 18 11 20 20 22 17 24
REMARK H PARENT 9 19 11 21 20 23 17 25
REMARK Flexibility Score: inf
ROOT
ATOM      1  C   UNL     1      51.963 -29.221 -30.269  1.00  0.00     0.138 A 
ATOM      2  C   UNL     1      51.361 -30.172 -29.434  1.00  0.00     0.100 A 
ATOM      3  C   UNL     1      49.971 -30.299 -29.423  1.00  0.00     0.197 A 
ATOM      4  O   UNL     1      49.464 -31.203 -28.710  1.00  0.00    -0.289 OA
ATOM      5  C   UNL     1      49.179 -29.448 -30.229  1.00  0.00     0.107 A 
ATOM      6  C   UNL     1      47.753 -29.459 -30.268  1.00  0.00     0.134 A 
ATOM      7  C   UNL     1      47.081 -28.649 -31.191  1.00  0.00     0.093 A 
ATOM      8  C   UNL     1      47.782 -27.783 -32.036  1.00  0.00     0.123 A 
ATOM      9  C   UNL     1      49.172 -27.726 -31.967  1.00  0.00     0.094 A 
ATOM     10  C   UNL     1      49.874 -28.546 -31.080  1.00  0.00     0.146 A 
ATOM     11  O   UNL     1      51.200 -28.471 -31.057  1.00  0.00    -0.456 OA
ENDROOT
BRANCH   1  12
ATOM     12  C   UNL     1      53.436 -29.042 -30.320  1.00  0.00     0.021 A 
ATOM     13  C   UNL     1      54.028 -27.986 -31.038  1.00  0.00     0.016 A 
ATOM     14  C   UNL     1      55.417 -27.847 -31.077  1.00  0.00     0.051 A 
ATOM     15  C   UNL     1      56.240 -28.762 -30.407  1.00  0.00     0.157 A 
ATOM     16  C   UNL     1      54.269 -29.965 -29.661  1.00  0.00     0.062 A 
ATOM     17  C   UNL     1      55.661 -29.827 -29.697  1.00  0.00     0.158 A 
BRANCH  15  18
ATOM     18  O   UNL     1      57.626 -28.619 -30.448  1.00  0.00    -0.504 OA
ATOM     19  H   UNL     1      58.238 -29.239 -29.931  1.00  0.00     0.293 HD
ENDBRANCH  15  18
BRANCH  17  20
ATOM     20  O   UNL     1      56.451 -30.757 -29.023  1.00  0.00    -0.504 OA
ATOM     21  H   UNL     1      56.048 -31.523 -28.495  1.00  0.00     0.293 HD
ENDBRANCH  17  20
ENDBRANCH   1  12
BRANCH   6  22
ATOM     22  O   UNL     1      46.955 -30.223 -29.411  1.00  0.00    -0.507 OA
ATOM     23  H   UNL     1      46.287 -30.916 -29.710  1.00  0.00     0.293 HD
ENDBRANCH   6  22
BRANCH   8  24
ATOM     24  O   UNL     1      47.105 -26.970 -32.941  1.00  0.00    -0.508 OA
ATOM     25  H   UNL     1      46.198 -27.230 -33.311  1.00  0.00     0.293 HD
ENDBRANCH   8  24
TORSDOF 5
ENDMDL
MODEL 6
REMARK VINA RESULT:    -5.870      1.991      7.216
REMARK INTER + INTRA:          -7.185
REMARK INTER:                  -6.890
REMARK INTRA:                  -0.295
REMARK UNBOUND:                -0.286
REMARK SMILES O=c1cc(-c2ccc(O)c(O)c2)oc2cc(O)cc(O)c12
REMARK SMILES IDX 4 1 3 2 2 3 1 4 21 5 19 6 18 7 16 8 15 9 14 10 13 11 5 12
REMARK SMILES IDX 6 13 7 14 8 15 12 16 10 17 9 18 11 20 20 22 17 24
REMARK H PARENT 9 19 11 21 20 23 17 25
REMARK Flexibility Score: inf
ROOT
ATOM      1  C   UNL     1      48.711 -29.338 -30.411  1.00  0.00     0.138 A 
ATOM      2  C   UNL     1      48.605 -30.390 -29.493  1.00  0.00     0.100 A 
ATOM      3  C   UNL     1      47.348 -30.776 -29.027  1.00  0.00     0.197 A 
ATOM      4  O   UNL     1      47.280 -31.765 -28.251  1.00  0.00    -0.289 OA
ATOM      5  C   UNL     1      46.193 -30.083 -29.461  1.00  0.00     0.107 A 
ATOM      6  C   UNL     1      44.864 -30.361 -29.023  1.00  0.00     0.134 A 
ATOM      7  C   UNL     1      43.787 -29.685 -29.609  1.00  0.00     0.093 A 
ATOM      8  C   UNL     1      43.997 -28.698 -30.576  1.00  0.00     0.123 A 
ATOM      9  C   UNL     1      45.294 -28.381 -30.971  1.00  0.00     0.094 A 
ATOM     10  C   UNL     1      46.387 -29.061 -30.429  1.00  0.00     0.146 A 
ATOM     11  O   UNL     1      47.607 -28.739 -30.844  1.00  0.00    -0.456 OA
ENDROOT
BRANCH   1  12
ATOM     12  C   UNL     1      50.024 -28.885 -30.938  1.00  0.00     0.021 A 
ATOM     13  C   UNL     1      50.125 -27.823 -31.856  1.00  0.00     0.016 A 
ATOM     14  C   UNL     1      51.373 -27.424 -32.343  1.00  0.00     0.051 A 
ATOM     15  C   UNL     1      52.538 -28.081 -31.929  1.00  0.00     0.157 A 
ATOM     16  C   UNL     1      51.198 -29.548 -30.537  1.00  0.00     0.062 A 
ATOM     17  C   UNL     1      52.448 -29.150 -31.022  1.00  0.00     0.158 A 
BRANCH  15  18
ATOM     18  O   UNL     1      53.780 -27.679 -32.416  1.00  0.00    -0.504 OA
ATOM     19  H   UNL     1      53.862 -27.053 -33.208  1.00  0.00     0.293 HD
ENDBRANCH  15  18
BRANCH  17  20
ATOM     20  O   UNL     1      53.588 -29.828 -30.592  1.00  0.00    -0.504 OA
ATOM     21  H   UNL     1      53.535 -30.721 -30.114  1.00  0.00     0.293 HD
ENDBRANCH  17  20
ENDBRANCH   1  12
BRANCH   6  22
ATOM     22  O   UNL     1      44.552 -31.268 -28.005  1.00  0.00    -0.507 OA
ATOM     23  H   UNL     1      43.991 -31.054 -27.194  1.00  0.00     0.293 HD
ENDBRANCH   6  22
BRANCH   8  24
ATOM     24  O   UNL     1      42.920 -28.020 -31.144  1.00  0.00    -0.508 OA
ATOM     25  H   UNL     1      42.744 -28.046 -32.141  1.00  0.00     0.293 HD
ENDBRANCH   8  24
TORSDOF 5
ENDMDL
MODEL 7
REMARK VINA RESULT:    -5.811      1.795      2.231
REMARK INTER + INTRA:          -7.116
REMARK INTER:                  -6.823
REMARK INTRA:                  -0.293
REMARK UNBOUND:                -0.286
REMARK SMILES O=c1cc(-c2ccc(O)c(O)c2)oc2cc(O)cc(O)c12
REMARK SMILES IDX 4 1 3 2 2 3 1 4 21 5 19 6 18 7 16 8 15 9 14 10 13 11 5 12
REMARK SMILES IDX 6 13 7 14 8 15 12 16 10 17 9 18 11 20 20 22 17 24
REMARK H PARENT 9 19 11 21 20 23 17 25
REMARK Flexibility Score: inf
ROOT
ATOM      1  C   UNL     1      45.685 -28.030 -30.338  1.00  0.00     0.138 A 
ATOM      2  C   UNL     1      46.238 -27.211 -29.345  1.00  0.00     0.100 A 
ATOM      3  C   UNL     1      47.561 -26.783 -29.461  1.00  0.00     0.197 A 
ATOM      4  O   UNL     1      48.010 -25.999 -28.585  1.00  0.00    -0.289 OA
ATOM      5  C   UNL     1      48.343 -27.202 -30.564  1.00  0.00     0.107 A 
ATOM      6  C   UNL     1      49.713 -26.861 -30.765  1.00  0.00     0.134 A 
ATOM      7  C   UNL     1      50.351 -27.239 -31.953  1.00  0.00     0.093 A 
ATOM      8  C   UNL     1      49.684 -27.997 -32.920  1.00  0.00     0.123 A 
ATOM      9  C   UNL     1      48.362 -28.380 -32.707  1.00  0.00     0.094 A 
ATOM     10  C   UNL     1      47.688 -27.990 -31.548  1.00  0.00     0.146 A 
ATOM     11  O   UNL     1      46.423 -28.364 -31.391  1.00  0.00    -0.456 OA
ENDROOT
BRANCH   1  12
ATOM     12  C   UNL     1      44.283 -28.516 -30.264  1.00  0.00     0.021 A 
ATOM     13  C   UNL     1      43.752 -29.060 -29.079  1.00  0.00     0.016 A 
ATOM     14  C   UNL     1      42.433 -29.519 -29.041  1.00  0.00     0.051 A 
ATOM     15  C   UNL     1      41.624 -29.450 -30.182  1.00  0.00     0.157 A 
ATOM     16  C   UNL     1      43.470 -28.463 -31.410  1.00  0.00     0.062 A 
ATOM     17  C   UNL     1      42.148 -28.921 -31.373  1.00  0.00     0.158 A 
BRANCH  15  18
ATOM     18  O   UNL     1      40.309 -29.908 -30.139  1.00  0.00    -0.504 OA
ATOM     19  H   UNL     1      40.083 -30.843 -29.822  1.00  0.00     0.293 HD
ENDBRANCH  15  18
BRANCH  17  20
ATOM     20  O   UNL     1      41.372 -28.841 -32.529  1.00  0.00    -0.504 OA
ATOM     21  H   UNL     1      40.484 -29.322 -32.615  1.00  0.00     0.293 HD
ENDBRANCH  17  20
ENDBRANCH   1  12
BRANCH   6  22
ATOM     22  O   UNL     1      50.495 -26.181 -29.827  1.00  0.00    -0.507 OA
ATOM     23  H   UNL     1      51.496 -26.075 -29.878  1.00  0.00     0.293 HD
ENDBRANCH   6  22
BRANCH   8  24
ATOM     24  O   UNL     1      50.331 -28.381 -34.093  1.00  0.00    -0.508 OA
ATOM     25  H   UNL     1      49.855 -28.914 -34.810  1.00  0.00     0.293 HD
ENDBRANCH   8  24
TORSDOF 5
ENDMDL
MODEL 8
REMARK VINA RESULT:    -5.726     14.208     14.959
REMARK INTER + INTRA:          -7.016
REMARK INTER:                  -6.719
REMARK INTRA:                  -0.297
REMARK UNBOUND:                -0.286
REMARK SMILES O=c1cc(-c2ccc(O)c(O)c2)oc2cc(O)cc(O)c12
REMARK SMILES IDX 4 1 3 2 2 3 1 4 21 5 19 6 18 7 16 8 15 9 14 10 13 11 5 12
REMARK SMILES IDX 6 13 7 14 8 15 12 16 10 17 9 18 11 20 20 22 17 24
REMARK H PARENT 9 19 11 21 20 23 17 25
REMARK Flexibility Score: inf
ROOT
ATOM      1  C   UNL     1      54.664 -38.339 -22.435  1.00  0.00     0.138 A 
ATOM      2  C   UNL     1      55.141 -39.543 -22.968  1.00  0.00     0.100 A 
ATOM      3  C   UNL     1      56.138 -39.519 -23.943  1.00  0.00     0.197 A 
ATOM      4  O   UNL     1      56.590 -40.618 -24.358  1.00  0.00    -0.289 OA
ATOM      5  C   UNL     1      56.638 -38.280 -24.410  1.00  0.00     0.107 A 
ATOM      6  C   UNL     1      57.624 -38.132 -25.430  1.00  0.00     0.134 A 
ATOM      7  C   UNL     1      58.125 -36.859 -25.727  1.00  0.00     0.093 A 
ATOM      8  C   UNL     1      57.631 -35.721 -25.082  1.00  0.00     0.123 A 
ATOM      9  C   UNL     1      56.630 -35.851 -24.123  1.00  0.00     0.094 A 
ATOM     10  C   UNL     1      56.133 -37.110 -23.780  1.00  0.00     0.146 A 
ATOM     11  O   UNL     1      55.188 -37.191 -22.850  1.00  0.00    -0.456 OA
ENDROOT
BRANCH   1  12
ATOM     12  C   UNL     1      53.603 -38.306 -21.395  1.00  0.00     0.021 A 
ATOM     13  C   UNL     1      52.475 -39.146 -21.464  1.00  0.00     0.016 A 
ATOM     14  C   UNL     1      51.488 -39.087 -20.478  1.00  0.00     0.051 A 
ATOM     15  C   UNL     1      51.604 -38.186 -19.411  1.00  0.00     0.157 A 
ATOM     16  C   UNL     1      53.706 -37.395 -20.329  1.00  0.00     0.062 A 
ATOM     17  C   UNL     1      52.719 -37.335 -19.339  1.00  0.00     0.158 A 
BRANCH  15  18
ATOM     18  O   UNL     1      50.617 -38.131 -18.429  1.00  0.00    -0.504 OA
ATOM     19  H   UNL     1      49.658 -38.392 -18.626  1.00  0.00     0.293 HD
ENDBRANCH  15  18
BRANCH  17  20
ATOM     20  O   UNL     1      52.863 -36.423 -18.293  1.00  0.00    -0.504 OA
ATOM     21  H   UNL     1      53.219 -36.699 -17.385  1.00  0.00     0.293 HD
ENDBRANCH  17  20
ENDBRANCH   1  12
BRANCH   6  22
ATOM     22  O   UNL     1      58.123 -39.193 -26.193  1.00  0.00    -0.507 OA
ATOM     23  H   UNL     1      59.054 -39.572 -26.114  1.00  0.00     0.293 HD
ENDBRANCH   6  22
BRANCH   8  24
ATOM     24  O   UNL     1      58.125 -34.457 -25.394  1.00  0.00    -0.508 OA
ATOM     25  H   UNL     1      58.916 -34.336 -26.015  1.00  0.00     0.293 HD
ENDBRANCH   8  24
TORSDOF 5
ENDMDL
MODEL 9
REMARK VINA RESULT:    -5.716     15.169     15.382
REMARK INTER + INTRA:          -7.004
REMARK INTER:                  -6.692
REMARK INTRA:                  -0.312
REMARK UNBOUND:                -0.286
REMARK SMILES O=c1cc(-c2ccc(O)c(O)c2)oc2cc(O)cc(O)c12
REMARK SMILES IDX 4 1 3 2 2 3 1 4 21 5 19 6 18 7 16 8 15 9 14 10 13 11 5 12
REMARK SMILES IDX 6 13 7 14 8 15 12 16 10 17 9 18 11 20 20 22 17 24
REMARK H PARENT 9 19 11 21 20 23 17 25
REMARK Flexibility Score: inf
ROOT
ATOM      1  C   UNL     1      52.570 -40.007 -22.394  1.00  0.00     0.138 A 
ATOM      2  C   UNL     1      52.065 -40.823 -23.415  1.00  0.00     0.100 A 
ATOM      3  C   UNL     1      52.871 -41.137 -24.509  1.00  0.00     0.197 A 
ATOM      4  O   UNL     1      52.411 -41.923 -25.379  1.00  0.00    -0.289 OA
ATOM      5  C   UNL     1      54.179 -40.605 -24.597  1.00  0.00     0.107 A 
ATOM      6  C   UNL     1      55.075 -40.824 -25.685  1.00  0.00     0.134 A 
ATOM      7  C   UNL     1      56.387 -40.341 -25.607  1.00  0.00     0.093 A 
ATOM      8  C   UNL     1      56.817 -39.595 -24.506  1.00  0.00     0.123 A 
ATOM      9  C   UNL     1      55.932 -39.331 -23.463  1.00  0.00     0.094 A 
ATOM     10  C   UNL     1      54.627 -39.827 -23.496  1.00  0.00     0.146 A 
ATOM     11  O   UNL     1      53.820 -39.564 -22.474  1.00  0.00    -0.456 OA
ENDROOT
BRANCH   1  12
ATOM     12  C   UNL     1      51.755 -39.639 -21.208  1.00  0.00     0.021 A 
ATOM     13  C   UNL     1      50.626 -40.388 -20.826  1.00  0.00     0.016 A 
ATOM     14  C   UNL     1      49.873 -40.014 -19.711  1.00  0.00     0.051 A 
ATOM     15  C   UNL     1      50.227 -38.884 -18.962  1.00  0.00     0.157 A 
ATOM     16  C   UNL     1      52.097 -38.498 -20.459  1.00  0.00     0.062 A 
ATOM     17  C   UNL     1      51.345 -38.122 -19.341  1.00  0.00     0.158 A 
BRANCH  15  18
ATOM     18  O   UNL     1      49.473 -38.515 -17.850  1.00  0.00    -0.504 OA
ATOM     19  H   UNL     1      49.862 -37.938 -17.114  1.00  0.00     0.293 HD
ENDBRANCH  15  18
BRANCH  17  20
ATOM     20  O   UNL     1      51.723 -36.990 -18.621  1.00  0.00    -0.504 OA
ATOM     21  H   UNL     1      52.509 -36.997 -17.981  1.00  0.00     0.293 HD
ENDBRANCH  17  20
ENDBRANCH   1  12
BRANCH   6  22
ATOM     22  O   UNL     1      54.722 -41.483 -26.867  1.00  0.00    -0.507 OA
ATOM     23  H   UNL     1      54.188 -42.337 -26.914  1.00  0.00     0.293 HD
ENDBRANCH   6  22
BRANCH   8  24
ATOM     24  O   UNL     1      58.119 -39.106 -24.443  1.00  0.00    -0.508 OA
ATOM     25  H   UNL     1      58.541 -38.835 -23.564  1.00  0.00     0.293 HD
ENDBRANCH   8  24
TORSDOF 5
ENDMDL
