MODEL 1
REMARK VINA RESULT:    -3.679      0.000      0.000
REMARK INTER + INTRA:         -12.458
REMARK INTER:                  -9.272
REMARK INTRA:                  -3.186
REMARK UNBOUND:                -3.186
REMARK SMILES CCCCCCCCCCCCCCCCCCCCCCCCCCCC(=O)[O-]
REMARK SMILES IDX 15 1 16 2 17 3 18 4 19 5 20 6 21 7 22 8 23 9 24 10 25 11
REMARK SMILES IDX 26 12 27 13 28 14 29 15 30 16 14 17 13 18 12 19 11 20 10 21
REMARK SMILES IDX 9 22 8 23 7 24 6 25 5 26 4 27 3 28 2 29 1 30
REMARK H PARENT
REMARK Flexibility Score: inf
ROOT
ATOM      1  C   UNL     1       0.975  33.252  17.894  1.00  0.00     0.000 C 
ENDROOT
BRANCH   1   2
ATOM      2  C   UNL     1       1.543  34.133  16.769  1.00  0.00     0.000 C 
BRANCH   2   3
ATOM      3  C   UNL     1       0.477  35.023  16.108  1.00  0.00     0.000 C 
BRANCH   3   4
ATOM      4  C   UNL     1      -0.875  35.030  16.853  1.00  0.00     0.000 C 
BRANCH   4   5
ATOM      5  C   UNL     1      -1.681  36.310  16.587  1.00  0.00     0.000 C 
BRANCH   5   6
ATOM      6  C   UNL     1      -1.444  36.822  15.161  1.00  0.00     0.000 C 
BRANCH   6   7
ATOM      7  C   UNL     1      -1.301  38.350  15.142  1.00  0.00     0.000 C 
BRANCH   7   8
ATOM      8  C   UNL     1      -0.657  38.859  16.438  1.00  0.00     0.000 C 
BRANCH   8   9
ATOM      9  C   UNL     1       0.852  39.072  16.252  1.00  0.00     0.000 C 
BRANCH   9  10
ATOM     10  C   UNL     1       1.493  38.010  15.344  1.00  0.00     0.000 C 
BRANCH  10  11
ATOM     11  C   UNL     1       1.907  38.575  13.975  1.00  0.00     0.000 C 
BRANCH  11  12
ATOM     12  C   UNL     1       2.350  37.484  12.982  1.00  0.00     0.006 C 
BRANCH  12  13
ATOM     13  C   UNL     1       1.274  37.107  11.947  1.00  0.00     0.053 C 
BRANCH  13  14
ATOM     14  C   UNL     1       0.509  35.875  12.330  1.00  0.00     0.041 C 
ATOM     15  O   UNL     1      -0.745  35.844  12.215  1.00  0.00    -0.550 OA
ATOM     16  O   UNL     1       1.184  34.752  12.790  1.00  0.00    -0.550 OA
ENDBRANCH  13  14
ENDBRANCH  12  13
ENDBRANCH  11  12
ENDBRANCH  10  11
ENDBRANCH   9  10
ENDBRANCH   8   9
ENDBRANCH   7   8
ENDBRANCH   6   7
ENDBRANCH   5   6
ENDBRANCH   4   5
ENDBRANCH   3   4
ENDBRANCH   2   3
ENDBRANCH   1   2
BRANCH   1  17
ATOM     17  C   UNL     1       1.974  32.188  18.375  1.00  0.00     0.000 C 
BRANCH  17  18
ATOM     18  C   UNL     1       3.131  32.792  19.192  1.00  0.00     0.000 C 
BRANCH  18  19
ATOM     19  C   UNL     1       4.510  32.392  18.645  1.00  0.00     0.000 C 
BRANCH  19  20
ATOM     20  C   UNL     1       5.636  33.302  19.160  1.00  0.00     0.000 C 
BRANCH  20  21
ATOM     21  C   UNL     1       6.383  33.962  17.994  1.00  0.00     0.000 C 
BRANCH  21  22
ATOM     22  C   UNL     1       5.683  35.256  17.554  1.00  0.00    -0.000 C 
BRANCH  22  23
ATOM     23  C   UNL     1       4.896  35.089  16.245  1.00  0.00    -0.000 C 
BRANCH  23  24
ATOM     24  C   UNL     1       4.960  36.337  15.351  1.00  0.00    -0.000 C 
BRANCH  24  25
ATOM     25  C   UNL     1       5.731  37.470  16.046  1.00  0.00    -0.000 C 
BRANCH  25  26
ATOM     26  C   UNL     1       5.471  38.843  15.404  1.00  0.00    -0.000 C 
BRANCH  26  27
ATOM     27  C   UNL     1       5.991  38.931  13.960  1.00  0.00    -0.000 C 
BRANCH  27  28
ATOM     28  C   UNL     1       7.513  38.733  13.914  1.00  0.00    -0.000 C 
BRANCH  28  29
ATOM     29  C   UNL     1       8.006  38.273  12.533  1.00  0.00    -0.003 C 
ATOM     30  C   UNL     1       8.850  37.001  12.599  1.00  0.00     0.004 C 
ENDBRANCH  28  29
ENDBRANCH  27  28
ENDBRANCH  26  27
ENDBRANCH  25  26
ENDBRANCH  24  25
ENDBRANCH  23  24
ENDBRANCH  22  23
ENDBRANCH  21  22
ENDBRANCH  20  21
ENDBRANCH  19  20
ENDBRANCH  18  19
ENDBRANCH  17  18
ENDBRANCH   1  17
TORSDOF 26
ENDMDL
MODEL 2
REMARK VINA RESULT:    -3.673     20.637     23.440
REMARK INTER + INTRA:         -12.441
REMARK INTER:                  -8.437
REMARK INTRA:                  -4.004
REMARK UNBOUND:                -3.186
REMARK SMILES CCCCCCCCCCCCCCCCCCCCCCCCCCCC(=O)[O-]
REMARK SMILES IDX 15 1 16 2 17 3 18 4 19 5 20 6 21 7 22 8 23 9 24 10 25 11
REMARK SMILES IDX 26 12 27 13 28 14 29 15 30 16 14 17 13 18 12 19 11 20 10 21
REMARK SMILES IDX 9 22 8 23 7 24 6 25 5 26 4 27 3 28 2 29 1 30
REMARK H PARENT
REMARK Flexibility Score: inf
ROOT
ATOM      1  C   UNL     1      10.743  21.173  28.744  1.00  0.00     0.000 C 
ENDROOT
BRANCH   1   2
ATOM      2  C   UNL     1      10.366  19.787  29.294  1.00  0.00     0.000 C 
BRANCH   2   3
ATOM      3  C   UNL     1      11.482  19.154  30.142  1.00  0.00     0.000 C 
BRANCH   3   4
ATOM      4  C   UNL     1      11.967  20.053  31.300  1.00  0.00     0.000 C 
BRANCH   4   5
ATOM      5  C   UNL     1      13.084  19.393  32.123  1.00  0.00     0.000 C 
BRANCH   5   6
ATOM      6  C   UNL     1      14.244  18.954  31.221  1.00  0.00     0.000 C 
BRANCH   6   7
ATOM      7  C   UNL     1      15.568  18.943  31.996  1.00  0.00     0.000 C 
BRANCH   7   8
ATOM      8  C   UNL     1      16.727  19.422  31.114  1.00  0.00     0.000 C 
BRANCH   8   9
ATOM      9  C   UNL     1      16.946  20.934  31.270  1.00  0.00     0.000 C 
BRANCH   9  10
ATOM     10  C   UNL     1      18.063  21.467  30.357  1.00  0.00     0.000 C 
BRANCH  10  11
ATOM     11  C   UNL     1      17.705  22.815  29.710  1.00  0.00     0.000 C 
BRANCH  11  12
ATOM     12  C   UNL     1      17.530  22.723  28.183  1.00  0.00     0.006 C 
BRANCH  12  13
ATOM     13  C   UNL     1      16.886  23.971  27.552  1.00  0.00     0.053 C 
BRANCH  13  14
ATOM     14  C   UNL     1      16.468  23.750  26.129  1.00  0.00     0.041 C 
ATOM     15  O   UNL     1      16.124  24.724  25.408  1.00  0.00    -0.550 OA
ATOM     16  O   UNL     1      16.482  22.470  25.591  1.00  0.00    -0.550 OA
ENDBRANCH  13  14
ENDBRANCH  12  13
ENDBRANCH  11  12
ENDBRANCH  10  11
ENDBRANCH   9  10
ENDBRANCH   8   9
ENDBRANCH   7   8
ENDBRANCH   6   7
ENDBRANCH   5   6
ENDBRANCH   4   5
ENDBRANCH   3   4
ENDBRANCH   2   3
ENDBRANCH   1   2
BRANCH   1  17
ATOM     17  C   UNL     1       9.601  22.192  28.875  1.00  0.00     0.000 C 
BRANCH  17  18
ATOM     18  C   UNL     1       8.612  21.830  29.998  1.00  0.00     0.000 C 
BRANCH  18  19
ATOM     19  C   UNL     1       8.768  22.732  31.232  1.00  0.00     0.000 C 
BRANCH  19  20
ATOM     20  C   UNL     1      10.073  22.466  31.999  1.00  0.00     0.000 C 
BRANCH  20  21
ATOM     21  C   UNL     1      10.905  23.748  32.124  1.00  0.00     0.000 C 
BRANCH  21  22
ATOM     22  C   UNL     1      10.587  24.725  30.982  1.00  0.00    -0.000 C 
BRANCH  22  23
ATOM     23  C   UNL     1      11.532  24.563  29.782  1.00  0.00    -0.000 C 
BRANCH  23  24
ATOM     24  C   UNL     1      12.872  25.289  29.981  1.00  0.00    -0.000 C 
BRANCH  24  25
ATOM     25  C   UNL     1      14.048  24.399  29.553  1.00  0.00    -0.000 C 
BRANCH  25  26
ATOM     26  C   UNL     1      14.203  23.155  30.443  1.00  0.00    -0.000 C 
BRANCH  26  27
ATOM     27  C   UNL     1      14.063  21.841  29.656  1.00  0.00    -0.000 C 
BRANCH  27  28
ATOM     28  C   UNL     1      13.972  22.115  28.148  1.00  0.00    -0.000 C 
BRANCH  28  29
ATOM     29  C   UNL     1      14.256  20.863  27.304  1.00  0.00    -0.003 C 
ATOM     30  C   UNL     1      14.116  19.566  28.100  1.00  0.00     0.004 C 
ENDBRANCH  28  29
ENDBRANCH  27  28
ENDBRANCH  26  27
ENDBRANCH  25  26
ENDBRANCH  24  25
ENDBRANCH  23  24
ENDBRANCH  22  23
ENDBRANCH  21  22
ENDBRANCH  20  21
ENDBRANCH  19  20
ENDBRANCH  18  19
ENDBRANCH  17  18
ENDBRANCH   1  17
TORSDOF 26
ENDMDL
MODEL 3
REMARK VINA RESULT:    -3.334     21.035     23.748
REMARK INTER + INTRA:         -11.588
REMARK INTER:                  -8.307
REMARK INTRA:                  -3.280
REMARK UNBOUND:                -3.186
REMARK SMILES CCCCCCCCCCCCCCCCCCCCCCCCCCCC(=O)[O-]
REMARK SMILES IDX 15 1 16 2 17 3 18 4 19 5 20 6 21 7 22 8 23 9 24 10 25 11
REMARK SMILES IDX 26 12 27 13 28 14 29 15 30 16 14 17 13 18 12 19 11 20 10 21
REMARK SMILES IDX 9 22 8 23 7 24 6 25 5 26 4 27 3 28 2 29 1 30
REMARK H PARENT
REMARK Flexibility Score: inf
ROOT
ATOM      1  C   UNL     1      15.608  22.593  25.897  1.00  0.00     0.000 C 
ENDROOT
BRANCH   1   2
ATOM      2  C   UNL     1      14.486  21.621  26.296  1.00  0.00     0.000 C 
BRANCH   2   3
ATOM      3  C   UNL     1      13.708  22.081  27.540  1.00  0.00     0.000 C 
BRANCH   3   4
ATOM      4  C   UNL     1      12.890  20.958  28.213  1.00  0.00     0.000 C 
BRANCH   4   5
ATOM      5  C   UNL     1      13.521  19.573  28.007  1.00  0.00     0.000 C 
BRANCH   5   6
ATOM      6  C   UNL     1      13.804  18.894  29.353  1.00  0.00     0.000 C 
BRANCH   6   7
ATOM      7  C   UNL     1      13.658  19.889  30.512  1.00  0.00     0.000 C 
BRANCH   7   8
ATOM      8  C   UNL     1      12.787  19.306  31.632  1.00  0.00     0.000 C 
BRANCH   8   9
ATOM      9  C   UNL     1      11.764  20.339  32.125  1.00  0.00     0.000 C 
BRANCH   9  10
ATOM     10  C   UNL     1      10.320  19.814  32.067  1.00  0.00     0.000 C 
BRANCH  10  11
ATOM     11  C   UNL     1       9.694  19.954  30.670  1.00  0.00     0.000 C 
BRANCH  11  12
ATOM     12  C   UNL     1      10.029  21.296  29.992  1.00  0.00     0.006 C 
BRANCH  12  13
ATOM     13  C   UNL     1       8.930  22.364  30.143  1.00  0.00     0.053 C 
BRANCH  13  14
ATOM     14  C   UNL     1       7.679  21.822  30.768  1.00  0.00     0.041 C 
ATOM     15  O   UNL     1       7.571  21.754  32.021  1.00  0.00    -0.550 OA
ATOM     16  O   UNL     1       6.620  21.416  29.966  1.00  0.00    -0.550 OA
ENDBRANCH  13  14
ENDBRANCH  12  13
ENDBRANCH  11  12
ENDBRANCH  10  11
ENDBRANCH   9  10
ENDBRANCH   8   9
ENDBRANCH   7   8
ENDBRANCH   6   7
ENDBRANCH   5   6
ENDBRANCH   4   5
ENDBRANCH   3   4
ENDBRANCH   2   3
ENDBRANCH   1   2
BRANCH   1  17
ATOM     17  C   UNL     1      16.021  23.525  27.048  1.00  0.00     0.000 C 
BRANCH  17  18
ATOM     18  C   UNL     1      17.165  22.943  27.898  1.00  0.00     0.000 C 
BRANCH  18  19
ATOM     19  C   UNL     1      17.392  21.446  27.634  1.00  0.00     0.000 C 
BRANCH  19  20
ATOM     20  C   UNL     1      16.714  20.552  28.684  1.00  0.00     0.000 C 
BRANCH  20  21
ATOM     21  C   UNL     1      17.746  19.978  29.662  1.00  0.00     0.000 C 
BRANCH  21  22
ATOM     22  C   UNL     1      17.066  19.442  30.930  1.00  0.00    -0.000 C 
BRANCH  22  23
ATOM     23  C   UNL     1      17.055  20.468  32.074  1.00  0.00    -0.000 C 
BRANCH  23  24
ATOM     24  C   UNL     1      17.821  21.753  31.725  1.00  0.00    -0.000 C 
BRANCH  24  25
ATOM     25  C   UNL     1      16.851  22.894  31.382  1.00  0.00    -0.000 C 
BRANCH  25  26
ATOM     26  C   UNL     1      15.438  22.389  31.045  1.00  0.00    -0.000 C 
BRANCH  26  27
ATOM     27  C   UNL     1      14.358  23.462  31.258  1.00  0.00    -0.000 C 
BRANCH  27  28
ATOM     28  C   UNL     1      14.008  24.155  29.932  1.00  0.00    -0.000 C 
BRANCH  28  29
ATOM     29  C   UNL     1      12.534  24.585  29.864  1.00  0.00    -0.003 C 
ATOM     30  C   UNL     1      11.775  24.305  31.160  1.00  0.00     0.004 C 
ENDBRANCH  28  29
ENDBRANCH  27  28
ENDBRANCH  26  27
ENDBRANCH  25  26
ENDBRANCH  24  25
ENDBRANCH  23  24
ENDBRANCH  22  23
ENDBRANCH  21  22
ENDBRANCH  20  21
ENDBRANCH  19  20
ENDBRANCH  18  19
ENDBRANCH  17  18
ENDBRANCH   1  17
TORSDOF 26
ENDMDL
MODEL 4
REMARK VINA RESULT:    -3.300     20.647     23.254
REMARK INTER + INTRA:         -11.503
REMARK INTER:                  -9.069
REMARK INTRA:                  -2.434
REMARK UNBOUND:                -3.186
REMARK SMILES CCCCCCCCCCCCCCCCCCCCCCCCCCCC(=O)[O-]
REMARK SMILES IDX 15 1 16 2 17 3 18 4 19 5 20 6 21 7 22 8 23 9 24 10 25 11
REMARK SMILES IDX 26 12 27 13 28 14 29 15 30 16 14 17 13 18 12 19 11 20 10 21
REMARK SMILES IDX 9 22 8 23 7 24 6 25 5 26 4 27 3 28 2 29 1 30
REMARK H PARENT
REMARK Flexibility Score: inf
ROOT
ATOM      1  C   UNL     1      13.359  22.740  29.351  1.00  0.00     0.000 C 
ENDROOT
BRANCH   1   2
ATOM      2  C   UNL     1      14.378  21.958  28.505  1.00  0.00     0.000 C 
BRANCH   2   3
ATOM      3  C   UNL     1      13.820  20.627  27.974  1.00  0.00     0.000 C 
BRANCH   3   4
ATOM      4  C   UNL     1      14.009  19.442  28.945  1.00  0.00     0.000 C 
BRANCH   4   5
ATOM      5  C   UNL     1      12.729  19.121  29.731  1.00  0.00     0.000 C 
BRANCH   5   6
ATOM      6  C   UNL     1      12.922  19.390  31.228  1.00  0.00     0.000 C 
BRANCH   6   7
ATOM      7  C   UNL     1      11.724  18.877  32.038  1.00  0.00     0.000 C 
BRANCH   7   8
ATOM      8  C   UNL     1      10.465  19.699  31.740  1.00  0.00     0.000 C 
BRANCH   8   9
ATOM      9  C   UNL     1      10.818  20.992  30.991  1.00  0.00     0.000 C 
BRANCH   9  10
ATOM     10  C   UNL     1       9.677  21.482  30.085  1.00  0.00     0.000 C 
BRANCH  10  11
ATOM     11  C   UNL     1       8.628  22.308  30.848  1.00  0.00     0.000 C 
BRANCH  11  12
ATOM     12  C   UNL     1       9.193  22.973  32.117  1.00  0.00     0.006 C 
BRANCH  12  13
ATOM     13  C   UNL     1       9.543  24.462  31.940  1.00  0.00     0.053 C 
BRANCH  13  14
ATOM     14  C   UNL     1      10.838  24.668  31.212  1.00  0.00     0.041 C 
ATOM     15  O   UNL     1      11.900  24.888  31.853  1.00  0.00    -0.550 OA
ATOM     16  O   UNL     1      10.877  24.591  29.826  1.00  0.00    -0.550 OA
ENDBRANCH  13  14
ENDBRANCH  12  13
ENDBRANCH  11  12
ENDBRANCH  10  11
ENDBRANCH   9  10
ENDBRANCH   8   9
ENDBRANCH   7   8
ENDBRANCH   6   7
ENDBRANCH   5   6
ENDBRANCH   4   5
ENDBRANCH   3   4
ENDBRANCH   2   3
ENDBRANCH   1   2
BRANCH   1  17
ATOM     17  C   UNL     1      13.940  23.202  30.697  1.00  0.00     0.000 C 
BRANCH  17  18
ATOM     18  C   UNL     1      15.256  22.487  31.049  1.00  0.00     0.000 C 
BRANCH  18  19
ATOM     19  C   UNL     1      15.051  21.331  32.041  1.00  0.00     0.000 C 
BRANCH  19  20
ATOM     20  C   UNL     1      16.239  20.357  32.068  1.00  0.00     0.000 C 
BRANCH  20  21
ATOM     21  C   UNL     1      17.419  20.912  31.261  1.00  0.00     0.000 C 
BRANCH  21  22
ATOM     22  C   UNL     1      17.496  20.256  29.875  1.00  0.00    -0.000 C 
BRANCH  22  23
ATOM     23  C   UNL     1      17.822  21.262  28.760  1.00  0.00    -0.000 C 
BRANCH  23  24
ATOM     24  C   UNL     1      18.071  22.680  29.296  1.00  0.00    -0.000 C 
BRANCH  24  25
ATOM     25  C   UNL     1      17.278  23.719  28.488  1.00  0.00    -0.000 C 
BRANCH  25  26
ATOM     26  C   UNL     1      16.859  23.198  27.104  1.00  0.00    -0.000 C 
BRANCH  26  27
ATOM     27  C   UNL     1      16.242  24.293  26.219  1.00  0.00    -0.000 C 
BRANCH  27  28
ATOM     28  C   UNL     1      16.015  23.777  24.790  1.00  0.00    -0.000 C 
BRANCH  28  29
ATOM     29  C   UNL     1      16.123  22.248  24.691  1.00  0.00    -0.003 C 
ATOM     30  C   UNL     1      14.769  21.549  24.810  1.00  0.00     0.004 C 
ENDBRANCH  28  29
ENDBRANCH  27  28
ENDBRANCH  26  27
ENDBRANCH  25  26
ENDBRANCH  24  25
ENDBRANCH  23  24
ENDBRANCH  22  23
ENDBRANCH  21  22
ENDBRANCH  20  21
ENDBRANCH  19  20
ENDBRANCH  18  19
ENDBRANCH  17  18
ENDBRANCH   1  17
TORSDOF 26
ENDMDL
MODEL 5
REMARK VINA RESULT:    -3.276     20.636     23.888
REMARK INTER + INTRA:         -11.441
REMARK INTER:                  -8.651
REMARK INTRA:                  -2.790
REMARK UNBOUND:                -3.186
REMARK SMILES CCCCCCCCCCCCCCCCCCCCCCCCCCCC(=O)[O-]
REMARK SMILES IDX 15 1 16 2 17 3 18 4 19 5 20 6 21 7 22 8 23 9 24 10 25 11
REMARK SMILES IDX 26 12 27 13 28 14 29 15 30 16 14 17 13 18 12 19 11 20 10 21
REMARK SMILES IDX 9 22 8 23 7 24 6 25 5 26 4 27 3 28 2 29 1 30
REMARK H PARENT
REMARK Flexibility Score: inf
ROOT
ATOM      1  C   UNL     1      12.894  20.525  28.676  1.00  0.00     0.000 C 
ENDROOT
BRANCH   1   2
ATOM      2  C   UNL     1      13.392  19.081  28.858  1.00  0.00     0.000 C 
BRANCH   2   3
ATOM      3  C   UNL     1      14.772  19.005  29.534  1.00  0.00     0.000 C 
BRANCH   3   4
ATOM      4  C   UNL     1      14.709  19.006  31.076  1.00  0.00     0.000 C 
BRANCH   4   5
ATOM      5  C   UNL     1      16.070  19.319  31.716  1.00  0.00     0.000 C 
BRANCH   5   6
ATOM      6  C   UNL     1      16.158  20.794  32.125  1.00  0.00     0.000 C 
BRANCH   6   7
ATOM      7  C   UNL     1      17.456  21.431  31.612  1.00  0.00     0.000 C 
BRANCH   7   8
ATOM      8  C   UNL     1      17.172  22.744  30.873  1.00  0.00     0.000 C 
BRANCH   8   9
ATOM      9  C   UNL     1      17.859  22.761  29.500  1.00  0.00     0.000 C 
BRANCH   9  10
ATOM     10  C   UNL     1      18.117  21.348  28.950  1.00  0.00     0.000 C 
BRANCH  10  11
ATOM     11  C   UNL     1      17.237  21.017  27.733  1.00  0.00     0.000 C 
BRANCH  11  12
ATOM     12  C   UNL     1      16.875  22.258  26.896  1.00  0.00     0.006 C 
BRANCH  12  13
ATOM     13  C   UNL     1      15.804  21.996  25.821  1.00  0.00     0.053 C 
BRANCH  13  14
ATOM     14  C   UNL     1      15.917  22.929  24.653  1.00  0.00     0.041 C 
ATOM     15  O   UNL     1      15.887  22.481  23.476  1.00  0.00    -0.550 OA
ATOM     16  O   UNL     1      16.028  24.297  24.863  1.00  0.00    -0.550 OA
ENDBRANCH  13  14
ENDBRANCH  12  13
ENDBRANCH  11  12
ENDBRANCH  10  11
ENDBRANCH   9  10
ENDBRANCH   8   9
ENDBRANCH   7   8
ENDBRANCH   6   7
ENDBRANCH   5   6
ENDBRANCH   4   5
ENDBRANCH   3   4
ENDBRANCH   2   3
ENDBRANCH   1   2
BRANCH   1  17
ATOM     17  C   UNL     1      13.995  21.472  28.176  1.00  0.00     0.000 C 
BRANCH  17  18
ATOM     18  C   UNL     1      13.994  22.822  28.917  1.00  0.00     0.000 C 
BRANCH  18  19
ATOM     19  C   UNL     1      13.557  22.687  30.385  1.00  0.00     0.000 C 
BRANCH  19  20
ATOM     20  C   UNL     1      12.994  23.997  30.956  1.00  0.00     0.000 C 
BRANCH  20  21
ATOM     21  C   UNL     1      11.968  24.615  29.998  1.00  0.00     0.000 C 
BRANCH  21  22
ATOM     22  C   UNL     1      10.625  24.849  30.705  1.00  0.00    -0.000 C 
BRANCH  22  23
ATOM     23  C   UNL     1      10.569  24.207  32.099  1.00  0.00    -0.000 C 
BRANCH  23  24
ATOM     24  C   UNL     1       9.735  22.916  32.124  1.00  0.00    -0.000 C 
BRANCH  24  25
ATOM     25  C   UNL     1       8.782  22.856  30.920  1.00  0.00    -0.000 C 
BRANCH  25  26
ATOM     26  C   UNL     1       9.329  21.986  29.776  1.00  0.00    -0.000 C 
BRANCH  26  27
ATOM     27  C   UNL     1      10.305  20.905  30.266  1.00  0.00    -0.000 C 
BRANCH  27  28
ATOM     28  C   UNL     1       9.575  19.856  31.118  1.00  0.00    -0.000 C 
BRANCH  28  29
ATOM     29  C   UNL     1      10.507  19.163  32.124  1.00  0.00    -0.003 C 
ATOM     30  C   UNL     1      11.984  19.460  31.866  1.00  0.00     0.004 C 
ENDBRANCH  28  29
ENDBRANCH  27  28
ENDBRANCH  26  27
ENDBRANCH  25  26
ENDBRANCH  24  25
ENDBRANCH  23  24
ENDBRANCH  22  23
ENDBRANCH  21  22
ENDBRANCH  20  21
ENDBRANCH  19  20
ENDBRANCH  18  19
ENDBRANCH  17  18
ENDBRANCH   1  17
TORSDOF 26
ENDMDL
MODEL 6
REMARK VINA RESULT:    -3.199     20.733     23.481
REMARK INTER + INTRA:         -11.247
REMARK INTER:                  -8.838
REMARK INTRA:                  -2.409
REMARK UNBOUND:                -3.186
REMARK SMILES CCCCCCCCCCCCCCCCCCCCCCCCCCCC(=O)[O-]
REMARK SMILES IDX 15 1 16 2 17 3 18 4 19 5 20 6 21 7 22 8 23 9 24 10 25 11
REMARK SMILES IDX 26 12 27 13 28 14 29 15 30 16 14 17 13 18 12 19 11 20 10 21
REMARK SMILES IDX 9 22 8 23 7 24 6 25 5 26 4 27 3 28 2 29 1 30
REMARK H PARENT
REMARK Flexibility Score: inf
ROOT
ATOM      1  C   UNL     1      13.296  24.570  29.833  1.00  0.00     0.000 C 
ENDROOT
BRANCH   1   2
ATOM      2  C   UNL     1      14.111  24.333  31.115  1.00  0.00     0.000 C 
BRANCH   2   3
ATOM      3  C   UNL     1      15.218  23.281  30.936  1.00  0.00     0.000 C 
BRANCH   3   4
ATOM      4  C   UNL     1      14.714  21.826  31.041  1.00  0.00     0.000 C 
BRANCH   4   5
ATOM      5  C   UNL     1      15.492  21.012  32.085  1.00  0.00     0.000 C 
BRANCH   5   6
ATOM      6  C   UNL     1      16.748  20.385  31.468  1.00  0.00     0.000 C 
BRANCH   6   7
ATOM      7  C   UNL     1      16.530  20.066  29.983  1.00  0.00     0.000 C 
BRANCH   7   8
ATOM      8  C   UNL     1      17.625  20.699  29.116  1.00  0.00     0.000 C 
BRANCH   8   9
ATOM      9  C   UNL     1      17.029  21.312  27.841  1.00  0.00     0.000 C 
BRANCH   9  10
ATOM     10  C   UNL     1      17.403  22.794  27.666  1.00  0.00     0.000 C 
BRANCH  10  11
ATOM     11  C   UNL     1      16.182  23.725  27.750  1.00  0.00     0.000 C 
BRANCH  11  12
ATOM     12  C   UNL     1      15.634  24.125  26.367  1.00  0.00     0.006 C 
BRANCH  12  13
ATOM     13  C   UNL     1      16.375  23.469  25.188  1.00  0.00     0.053 C 
BRANCH  13  14
ATOM     14  C   UNL     1      15.643  22.285  24.631  1.00  0.00     0.041 C 
ATOM     15  O   UNL     1      15.891  21.873  23.467  1.00  0.00    -0.550 OA
ATOM     16  O   UNL     1      14.704  21.619  25.408  1.00  0.00    -0.550 OA
ENDBRANCH  13  14
ENDBRANCH  12  13
ENDBRANCH  11  12
ENDBRANCH  10  11
ENDBRANCH   9  10
ENDBRANCH   8   9
ENDBRANCH   7   8
ENDBRANCH   6   7
ENDBRANCH   5   6
ENDBRANCH   4   5
ENDBRANCH   3   4
ENDBRANCH   2   3
ENDBRANCH   1   2
BRANCH   1  17
ATOM     17  C   UNL     1      11.780  24.577  30.088  1.00  0.00     0.000 C 
BRANCH  17  18
ATOM     18  C   UNL     1      11.434  24.615  31.587  1.00  0.00     0.000 C 
BRANCH  18  19
ATOM     19  C   UNL     1      10.585  23.411  32.025  1.00  0.00     0.000 C 
BRANCH  19  20
ATOM     20  C   UNL     1       9.386  23.164  31.097  1.00  0.00     0.000 C 
BRANCH  20  21
ATOM     21  C   UNL     1       8.416  22.150  31.714  1.00  0.00     0.000 C 
BRANCH  21  22
ATOM     22  C   UNL     1       8.755  20.720  31.269  1.00  0.00    -0.000 C 
BRANCH  22  23
ATOM     23  C   UNL     1      10.003  20.161  31.970  1.00  0.00    -0.000 C 
BRANCH  23  24
ATOM     24  C   UNL     1      10.809  19.208  31.074  1.00  0.00    -0.000 C 
BRANCH  24  25
ATOM     25  C   UNL     1      12.201  19.783  30.774  1.00  0.00    -0.000 C 
BRANCH  25  26
ATOM     26  C   UNL     1      13.031  18.876  29.850  1.00  0.00    -0.000 C 
BRANCH  26  27
ATOM     27  C   UNL     1      13.246  19.486  28.456  1.00  0.00    -0.000 C 
BRANCH  27  28
ATOM     28  C   UNL     1      13.145  21.017  28.508  1.00  0.00    -0.000 C 
BRANCH  28  29
ATOM     29  C   UNL     1      11.768  21.501  28.988  1.00  0.00    -0.003 C 
ATOM     30  C   UNL     1      10.774  21.689  27.843  1.00  0.00     0.004 C 
ENDBRANCH  28  29
ENDBRANCH  27  28
ENDBRANCH  26  27
ENDBRANCH  25  26
ENDBRANCH  24  25
ENDBRANCH  23  24
ENDBRANCH  22  23
ENDBRANCH  21  22
ENDBRANCH  20  21
ENDBRANCH  19  20
ENDBRANCH  18  19
ENDBRANCH  17  18
ENDBRANCH   1  17
TORSDOF 26
ENDMDL
MODEL 7
REMARK VINA RESULT:    -2.983     20.744     23.355
REMARK INTER + INTRA:         -10.703
REMARK INTER:                  -7.800
REMARK INTRA:                  -2.903
REMARK UNBOUND:                -3.186
REMARK SMILES CCCCCCCCCCCCCCCCCCCCCCCCCCCC(=O)[O-]
REMARK SMILES IDX 15 1 16 2 17 3 18 4 19 5 20 6 21 7 22 8 23 9 24 10 25 11
REMARK SMILES IDX 26 12 27 13 28 14 29 15 30 16 14 17 13 18 12 19 11 20 10 21
REMARK SMILES IDX 9 22 8 23 7 24 6 25 5 26 4 27 3 28 2 29 1 30
REMARK H PARENT
REMARK Flexibility Score: inf
ROOT
ATOM      1  C   UNL     1      11.885  24.297  29.584  1.00  0.00     0.000 C 
ENDROOT
BRANCH   1   2
ATOM      2  C   UNL     1      10.516  23.622  29.773  1.00  0.00     0.000 C 
BRANCH   2   3
ATOM      3  C   UNL     1       9.942  23.815  31.186  1.00  0.00     0.000 C 
BRANCH   3   4
ATOM      4  C   UNL     1      10.153  22.599  32.113  1.00  0.00     0.000 C 
BRANCH   4   5
ATOM      5  C   UNL     1       9.219  21.430  31.765  1.00  0.00     0.000 C 
BRANCH   5   6
ATOM      6  C   UNL     1       9.174  21.196  30.250  1.00  0.00     0.000 C 
BRANCH   6   7
ATOM      7  C   UNL     1       9.571  19.754  29.905  1.00  0.00     0.000 C 
BRANCH   7   8
ATOM      8  C   UNL     1      10.648  19.725  28.815  1.00  0.00     0.000 C 
BRANCH   8   9
ATOM      9  C   UNL     1      11.370  21.078  28.720  1.00  0.00     0.000 C 
BRANCH   9  10
ATOM     10  C   UNL     1      12.335  21.151  27.525  1.00  0.00     0.000 C 
BRANCH  10  11
ATOM     11  C   UNL     1      13.791  20.860  27.922  1.00  0.00     0.000 C 
BRANCH  11  12
ATOM     12  C   UNL     1      14.807  21.294  26.849  1.00  0.00     0.006 C 
BRANCH  12  13
ATOM     13  C   UNL     1      15.008  22.818  26.759  1.00  0.00     0.053 C 
BRANCH  13  14
ATOM     14  C   UNL     1      15.882  23.219  25.609  1.00  0.00     0.041 C 
ATOM     15  O   UNL     1      16.245  22.364  24.758  1.00  0.00    -0.550 OA
ATOM     16  O   UNL     1      16.274  24.543  25.461  1.00  0.00    -0.550 OA
ENDBRANCH  13  14
ENDBRANCH  12  13
ENDBRANCH  11  12
ENDBRANCH  10  11
ENDBRANCH   9  10
ENDBRANCH   8   9
ENDBRANCH   7   8
ENDBRANCH   6   7
ENDBRANCH   5   6
ENDBRANCH   4   5
ENDBRANCH   3   4
ENDBRANCH   2   3
ENDBRANCH   1   2
BRANCH   1  17
ATOM     17  C   UNL     1      12.602  24.563  30.916  1.00  0.00     0.000 C 
BRANCH  17  18
ATOM     18  C   UNL     1      13.984  23.890  30.987  1.00  0.00     0.000 C 
BRANCH  18  19
ATOM     19  C   UNL     1      13.922  22.384  30.687  1.00  0.00     0.000 C 
BRANCH  19  20
ATOM     20  C   UNL     1      13.623  21.544  31.939  1.00  0.00     0.000 C 
BRANCH  20  21
ATOM     21  C   UNL     1      12.809  20.295  31.577  1.00  0.00     0.000 C 
BRANCH  21  22
ATOM     22  C   UNL     1      13.708  19.207  30.973  1.00  0.00    -0.000 C 
BRANCH  22  23
ATOM     23  C   UNL     1      14.961  18.935  31.820  1.00  0.00    -0.000 C 
BRANCH  23  24
ATOM     24  C   UNL     1      16.247  18.894  30.979  1.00  0.00    -0.000 C 
BRANCH  24  25
ATOM     25  C   UNL     1      17.490  19.026  31.872  1.00  0.00    -0.000 C 
BRANCH  25  26
ATOM     26  C   UNL     1      18.120  20.427  31.806  1.00  0.00    -0.000 C 
BRANCH  26  27
ATOM     27  C   UNL     1      18.028  21.054  30.405  1.00  0.00    -0.000 C 
BRANCH  27  28
ATOM     28  C   UNL     1      17.702  22.552  30.498  1.00  0.00    -0.000 C 
BRANCH  28  29
ATOM     29  C   UNL     1      17.097  23.105  29.198  1.00  0.00    -0.003 C 
ATOM     30  C   UNL     1      18.079  23.969  28.408  1.00  0.00     0.004 C 
ENDBRANCH  28  29
ENDBRANCH  27  28
ENDBRANCH  26  27
ENDBRANCH  25  26
ENDBRANCH  24  25
ENDBRANCH  23  24
ENDBRANCH  22  23
ENDBRANCH  21  22
ENDBRANCH  20  21
ENDBRANCH  19  20
ENDBRANCH  18  19
ENDBRANCH  17  18
ENDBRANCH   1  17
TORSDOF 26
ENDMDL
MODEL 8
REMARK VINA RESULT:    -2.934      1.896      3.929
REMARK INTER + INTRA:         -10.581
REMARK INTER:                  -8.004
REMARK INTRA:                  -2.577
REMARK UNBOUND:                -3.186
REMARK SMILES CCCCCCCCCCCCCCCCCCCCCCCCCCCC(=O)[O-]
REMARK SMILES IDX 15 1 16 2 17 3 18 4 19 5 20 6 21 7 22 8 23 9 24 10 25 11
REMARK SMILES IDX 26 12 27 13 28 14 29 15 30 16 14 17 13 18 12 19 11 20 10 21
REMARK SMILES IDX 9 22 8 23 7 24 6 25 5 26 4 27 3 28 2 29 1 30
REMARK H PARENT
REMARK Flexibility Score: inf
ROOT
ATOM      1  C   UNL     1       5.575  32.589  18.912  1.00  0.00     0.000 C 
ENDROOT
BRANCH   1   2
ATOM      2  C   UNL     1       4.266  31.831  18.632  1.00  0.00     0.000 C 
BRANCH   2   3
ATOM      3  C   UNL     1       3.025  32.554  19.182  1.00  0.00     0.000 C 
BRANCH   3   4
ATOM      4  C   UNL     1       1.800  32.483  18.245  1.00  0.00     0.000 C 
BRANCH   4   5
ATOM      5  C   UNL     1       1.230  33.873  17.925  1.00  0.00     0.000 C 
BRANCH   5   6
ATOM      6  C   UNL     1       0.273  33.811  16.728  1.00  0.00     0.000 C 
BRANCH   6   7
ATOM      7  C   UNL     1      -1.059  34.502  17.054  1.00  0.00     0.000 C 
BRANCH   7   8
ATOM      8  C   UNL     1      -1.833  34.837  15.773  1.00  0.00     0.000 C 
BRANCH   8   9
ATOM      9  C   UNL     1      -0.899  35.425  14.706  1.00  0.00     0.000 C 
BRANCH   9  10
ATOM     10  C   UNL     1      -1.643  36.309  13.691  1.00  0.00     0.000 C 
BRANCH  10  11
ATOM     11  C   UNL     1      -0.777  37.468  13.169  1.00  0.00     0.000 C 
BRANCH  11  12
ATOM     12  C   UNL     1      -0.732  38.667  14.134  1.00  0.00     0.006 C 
BRANCH  12  13
ATOM     13  C   UNL     1      -1.850  38.662  15.191  1.00  0.00     0.053 C 
BRANCH  13  14
ATOM     14  C   UNL     1      -1.328  38.828  16.587  1.00  0.00     0.041 C 
ATOM     15  O   UNL     1      -2.124  38.882  17.562  1.00  0.00    -0.550 OA
ATOM     16  O   UNL     1       0.040  38.899  16.814  1.00  0.00    -0.550 OA
ENDBRANCH  13  14
ENDBRANCH  12  13
ENDBRANCH  11  12
ENDBRANCH  10  11
ENDBRANCH   9  10
ENDBRANCH   8   9
ENDBRANCH   7   8
ENDBRANCH   6   7
ENDBRANCH   5   6
ENDBRANCH   4   5
ENDBRANCH   3   4
ENDBRANCH   2   3
ENDBRANCH   1   2
BRANCH   1  17
ATOM     17  C   UNL     1       5.391  34.115  18.890  1.00  0.00     0.000 C 
BRANCH  17  18
ATOM     18  C   UNL     1       5.574  34.711  17.483  1.00  0.00     0.000 C 
BRANCH  18  19
ATOM     19  C   UNL     1       4.268  34.722  16.673  1.00  0.00     0.000 C 
BRANCH  19  20
ATOM     20  C   UNL     1       4.436  35.369  15.290  1.00  0.00     0.000 C 
BRANCH  20  21
ATOM     21  C   UNL     1       3.073  35.609  14.630  1.00  0.00     0.000 C 
BRANCH  21  22
ATOM     22  C   UNL     1       2.557  37.024  14.929  1.00  0.00    -0.000 C 
BRANCH  22  23
ATOM     23  C   UNL     1       2.915  38.032  13.826  1.00  0.00    -0.000 C 
BRANCH  23  24
ATOM     24  C   UNL     1       4.134  38.896  14.187  1.00  0.00    -0.000 C 
BRANCH  24  25
ATOM     25  C   UNL     1       4.844  38.349  15.435  1.00  0.00    -0.000 C 
BRANCH  25  26
ATOM     26  C   UNL     1       6.343  38.694  15.462  1.00  0.00    -0.000 C 
BRANCH  26  27
ATOM     27  C   UNL     1       7.161  37.866  14.458  1.00  0.00    -0.000 C 
BRANCH  27  28
ATOM     28  C   UNL     1       7.277  38.598  13.113  1.00  0.00    -0.000 C 
BRANCH  28  29
ATOM     29  C   UNL     1       8.484  38.125  12.287  1.00  0.00    -0.003 C 
ATOM     30  C   UNL     1       8.804  36.646  12.500  1.00  0.00     0.004 C 
ENDBRANCH  28  29
ENDBRANCH  27  28
ENDBRANCH  26  27
ENDBRANCH  25  26
ENDBRANCH  24  25
ENDBRANCH  23  24
ENDBRANCH  22  23
ENDBRANCH  21  22
ENDBRANCH  20  21
ENDBRANCH  19  20
ENDBRANCH  18  19
ENDBRANCH  17  18
ENDBRANCH   1  17
TORSDOF 26
ENDMDL
MODEL 9
REMARK VINA RESULT:    -2.030     21.249     23.552
REMARK INTER + INTRA:          -8.301
REMARK INTER:                  -4.751
REMARK INTRA:                  -3.551
REMARK UNBOUND:                -3.186
REMARK SMILES CCCCCCCCCCCCCCCCCCCCCCCCCCCC(=O)[O-]
REMARK SMILES IDX 15 1 16 2 17 3 18 4 19 5 20 6 21 7 22 8 23 9 24 10 25 11
REMARK SMILES IDX 26 12 27 13 28 14 29 15 30 16 14 17 13 18 12 19 11 20 10 21
REMARK SMILES IDX 9 22 8 23 7 24 6 25 5 26 4 27 3 28 2 29 1 30
REMARK H PARENT
REMARK Flexibility Score: inf
ROOT
ATOM      1  C   UNL     1      10.673  21.247  28.973  1.00  0.00     0.000 C 
ENDROOT
BRANCH   1   2
ATOM      2  C   UNL     1      11.812  21.558  27.987  1.00  0.00     0.000 C 
BRANCH   2   3
ATOM      3  C   UNL     1      12.736  20.354  27.739  1.00  0.00     0.000 C 
BRANCH   3   4
ATOM      4  C   UNL     1      14.238  20.707  27.771  1.00  0.00     0.000 C 
BRANCH   4   5
ATOM      5  C   UNL     1      14.568  21.933  26.905  1.00  0.00     0.000 C 
BRANCH   5   6
ATOM      6  C   UNL     1      15.454  21.542  25.716  1.00  0.00     0.000 C 
BRANCH   6   7
ATOM      7  C   UNL     1      16.649  22.496  25.584  1.00  0.00     0.000 C 
BRANCH   7   8
ATOM      8  C   UNL     1      16.234  23.943  25.876  1.00  0.00     0.000 C 
BRANCH   8   9
ATOM      9  C   UNL     1      16.052  24.168  27.384  1.00  0.00     0.000 C 
BRANCH   9  10
ATOM     10  C   UNL     1      17.349  23.939  28.177  1.00  0.00     0.000 C 
BRANCH  10  11
ATOM     11  C   UNL     1      17.139  23.044  29.410  1.00  0.00     0.000 C 
BRANCH  11  12
ATOM     12  C   UNL     1      18.090  21.834  29.445  1.00  0.00     0.006 C 
BRANCH  12  13
ATOM     13  C   UNL     1      17.397  20.486  29.172  1.00  0.00     0.053 C 
BRANCH  13  14
ATOM     14  C   UNL     1      17.072  19.738  30.430  1.00  0.00     0.041 C 
ATOM     15  O   UNL     1      16.079  18.964  30.472  1.00  0.00    -0.550 OA
ATOM     16  O   UNL     1      17.881  19.875  31.550  1.00  0.00    -0.550 OA
ENDBRANCH  13  14
ENDBRANCH  12  13
ENDBRANCH  11  12
ENDBRANCH  10  11
ENDBRANCH   9  10
ENDBRANCH   8   9
ENDBRANCH   7   8
ENDBRANCH   6   7
ENDBRANCH   5   6
ENDBRANCH   4   5
ENDBRANCH   3   4
ENDBRANCH   2   3
ENDBRANCH   1   2
BRANCH   1  17
ATOM     17  C   UNL     1      10.679  19.783  29.441  1.00  0.00     0.000 C 
BRANCH  17  18
ATOM     18  C   UNL     1      11.091  19.637  30.917  1.00  0.00     0.000 C 
BRANCH  18  19
ATOM     19  C   UNL     1      12.608  19.773  31.121  1.00  0.00     0.000 C 
BRANCH  19  20
ATOM     20  C   UNL     1      13.003  21.123  31.739  1.00  0.00     0.000 C 
BRANCH  20  21
ATOM     21  C   UNL     1      14.153  21.767  30.954  1.00  0.00     0.000 C 
BRANCH  21  22
ATOM     22  C   UNL     1      14.036  23.298  30.963  1.00  0.00    -0.000 C 
BRANCH  22  23
ATOM     23  C   UNL     1      13.413  23.853  29.673  1.00  0.00    -0.000 C 
BRANCH  23  24
ATOM     24  C   UNL     1      12.036  24.495  29.909  1.00  0.00    -0.000 C 
BRANCH  24  25
ATOM     25  C   UNL     1      11.691  24.519  31.405  1.00  0.00    -0.000 C 
BRANCH  25  26
ATOM     26  C   UNL     1      10.211  24.842  31.666  1.00  0.00    -0.000 C 
BRANCH  26  27
ATOM     27  C   UNL     1       9.407  23.614  32.125  1.00  0.00    -0.000 C 
BRANCH  27  28
ATOM     28  C   UNL     1       9.037  22.726  30.928  1.00  0.00    -0.000 C 
BRANCH  28  29
ATOM     29  C   UNL     1       7.868  21.778  31.238  1.00  0.00    -0.003 C 
ATOM     30  C   UNL     1       7.035  21.442  30.001  1.00  0.00     0.004 C 
ENDBRANCH  28  29
ENDBRANCH  27  28
ENDBRANCH  26  27
ENDBRANCH  25  26
ENDBRANCH  24  25
ENDBRANCH  23  24
ENDBRANCH  22  23
ENDBRANCH  21  22
ENDBRANCH  20  21
ENDBRANCH  19  20
ENDBRANCH  18  19
ENDBRANCH  17  18
ENDBRANCH   1  17
TORSDOF 26
ENDMDL
