MODEL 1
REMARK VINA RESULT:    -5.747      0.000      0.000
REMARK INTER + INTRA:          -7.225
REMARK INTER:                  -6.923
REMARK INTRA:                  -0.302
REMARK UNBOUND:                -0.302
REMARK SMILES O=c1c(O)c(-c2ccc(O)c(O)c2)oc2cc(O)cc(O)c12
REMARK SMILES IDX 5 1 3 2 2 3 1 4 22 5 20 6 19 7 17 8 16 9 15 10 14 11 6 12
REMARK SMILES IDX 7 13 8 14 9 15 13 16 11 17 10 18 12 20 4 22 21 24 18 26
REMARK H PARENT 10 19 12 21 4 23 21 25 18 27
REMARK Flexibility Score: inf
ROOT
ATOM      1  C   UNL     1     102.927 115.857  88.407  1.00  0.00     0.180 A 
ATOM      2  C   UNL     1     104.267 115.438  88.350  1.00  0.00     0.208 A 
ATOM      3  C   UNL     1     104.791 114.992  87.125  1.00  0.00     0.238 A 
ATOM      4  O   UNL     1     106.006 114.670  87.069  1.00  0.00    -0.285 OA
ATOM      5  C   UNL     1     103.963 114.956  85.977  1.00  0.00     0.111 A 
ATOM      6  C   UNL     1     104.377 114.485  84.695  1.00  0.00     0.134 A 
ATOM      7  C   UNL     1     103.514 114.617  83.599  1.00  0.00     0.093 A 
ATOM      8  C   UNL     1     102.231 115.141  83.753  1.00  0.00     0.123 A 
ATOM      9  C   UNL     1     101.795 115.550  85.013  1.00  0.00     0.094 A 
ATOM     10  C   UNL     1     102.645 115.464  86.118  1.00  0.00     0.146 A 
ATOM     11  O   UNL     1     102.196 115.873  87.299  1.00  0.00    -0.452 OA
ENDROOT
BRANCH   1  12
ATOM     12  C   UNL     1     102.298 116.317  89.666  1.00  0.00     0.025 A 
ATOM     13  C   UNL     1     102.465 117.649  90.075  1.00  0.00     0.016 A 
ATOM     14  C   UNL     1     101.863 118.110  91.249  1.00  0.00     0.051 A 
ATOM     15  C   UNL     1     101.073 117.253  92.022  1.00  0.00     0.157 A 
ATOM     16  C   UNL     1     101.486 115.462  90.433  1.00  0.00     0.062 A 
ATOM     17  C   UNL     1     100.879 115.924  91.611  1.00  0.00     0.158 A 
BRANCH  15  18
ATOM     18  O   UNL     1     100.487 117.740  93.189  1.00  0.00    -0.504 OA
ATOM     19  H   UNL     1      99.604 118.237  93.180  1.00  0.00     0.293 HD
ENDBRANCH  15  18
BRANCH  17  20
ATOM     20  O   UNL     1     100.080 115.068  92.368  1.00  0.00    -0.504 OA
ATOM     21  H   UNL     1     100.438 114.596  93.190  1.00  0.00     0.293 HD
ENDBRANCH  17  20
ENDBRANCH   1  12
BRANCH   2  22
ATOM     22  O   UNL     1     105.074 115.503  89.491  1.00  0.00    -0.502 OA
ATOM     23  H   UNL     1     104.840 115.021  90.349  1.00  0.00     0.293 HD
ENDBRANCH   2  22
BRANCH   6  24
ATOM     24  O   UNL     1     105.604 113.860  84.451  1.00  0.00    -0.507 OA
ATOM     25  H   UNL     1     105.829 112.915  84.718  1.00  0.00     0.293 HD
ENDBRANCH   6  24
BRANCH   8  26
ATOM     26  O   UNL     1     101.394 115.243  82.643  1.00  0.00    -0.508 OA
ATOM     27  H   UNL     1     101.678 115.745  81.810  1.00  0.00     0.293 HD
ENDBRANCH   8  26
TORSDOF 6
ENDMDL
MODEL 2
REMARK VINA RESULT:    -5.678     16.382     17.447
REMARK INTER + INTRA:          -7.142
REMARK INTER:                  -6.820
REMARK INTRA:                  -0.322
REMARK UNBOUND:                -0.302
REMARK SMILES O=c1c(O)c(-c2ccc(O)c(O)c2)oc2cc(O)cc(O)c12
REMARK SMILES IDX 5 1 3 2 2 3 1 4 22 5 20 6 19 7 17 8 16 9 15 10 14 11 6 12
REMARK SMILES IDX 7 13 8 14 9 15 13 16 11 17 10 18 12 20 4 22 21 24 18 26
REMARK H PARENT 10 19 12 21 4 23 21 25 18 27
REMARK Flexibility Score: inf
ROOT
ATOM      1  C   UNL     1     111.314 100.550  90.249  1.00  0.00     0.180 A 
ATOM      2  C   UNL     1     112.569 101.172  90.366  1.00  0.00     0.208 A 
ATOM      3  C   UNL     1     113.139 101.776  89.233  1.00  0.00     0.238 A 
ATOM      4  O   UNL     1     114.237 102.377  89.357  1.00  0.00    -0.285 OA
ATOM      5  C   UNL     1     112.454 101.737  87.995  1.00  0.00     0.111 A 
ATOM      6  C   UNL     1     112.955 102.282  86.775  1.00  0.00     0.134 A 
ATOM      7  C   UNL     1     112.135 102.302  85.639  1.00  0.00     0.093 A 
ATOM      8  C   UNL     1     110.859 101.739  85.662  1.00  0.00     0.123 A 
ATOM      9  C   UNL     1     110.382 101.152  86.834  1.00  0.00     0.094 A 
ATOM     10  C   UNL     1     111.162 101.148  87.992  1.00  0.00     0.146 A 
ATOM     11  O   UNL     1     110.667 100.588  89.090  1.00  0.00    -0.452 OA
ENDROOT
BRANCH   1  12
ATOM     12  C   UNL     1     110.662  99.871  91.392  1.00  0.00     0.025 A 
ATOM     13  C   UNL     1     110.969  98.529  91.664  1.00  0.00     0.016 A 
ATOM     14  C   UNL     1     110.381  97.875  92.750  1.00  0.00     0.051 A 
ATOM     15  C   UNL     1     109.492  98.555  93.589  1.00  0.00     0.157 A 
ATOM     16  C   UNL     1     109.785 100.560  92.248  1.00  0.00     0.062 A 
ATOM     17  C   UNL     1     109.195  99.906  93.341  1.00  0.00     0.158 A 
BRANCH  15  18
ATOM     18  O   UNL     1     108.920  97.876  94.664  1.00  0.00    -0.504 OA
ATOM     19  H   UNL     1     109.021  96.876  94.783  1.00  0.00     0.293 HD
ENDBRANCH  15  18
BRANCH  17  20
ATOM     20  O   UNL     1     108.322 100.595  94.181  1.00  0.00    -0.504 OA
ATOM     21  H   UNL     1     108.656 101.120  94.981  1.00  0.00     0.293 HD
ENDBRANCH  17  20
ENDBRANCH   1  12
BRANCH   2  22
ATOM     22  O   UNL     1     113.219 101.218  91.603  1.00  0.00    -0.502 OA
ATOM     23  H   UNL     1     114.219 101.351  91.688  1.00  0.00     0.293 HD
ENDBRANCH   2  22
BRANCH   6  24
ATOM     24  O   UNL     1     114.250 102.786  86.618  1.00  0.00    -0.507 OA
ATOM     25  H   UNL     1     114.817 102.662  85.794  1.00  0.00     0.293 HD
ENDBRANCH   6  24
BRANCH   8  26
ATOM     26  O   UNL     1     110.077 101.763  84.509  1.00  0.00    -0.508 OA
ATOM     27  H   UNL     1     109.544 102.585  84.248  1.00  0.00     0.293 HD
ENDBRANCH   8  26
TORSDOF 6
ENDMDL
MODEL 3
REMARK VINA RESULT:    -5.399      2.643      3.696
REMARK INTER + INTRA:          -6.806
REMARK INTER:                  -6.530
REMARK INTRA:                  -0.276
REMARK UNBOUND:                -0.302
REMARK SMILES O=c1c(O)c(-c2ccc(O)c(O)c2)oc2cc(O)cc(O)c12
REMARK SMILES IDX 5 1 3 2 2 3 1 4 22 5 20 6 19 7 17 8 16 9 15 10 14 11 6 12
REMARK SMILES IDX 7 13 8 14 9 15 13 16 11 17 10 18 12 20 4 22 21 24 18 26
REMARK H PARENT 10 19 12 21 4 23 21 25 18 27
REMARK Flexibility Score: inf
ROOT
ATOM      1  C   UNL     1     103.122 114.518  90.050  1.00  0.00     0.180 A 
ATOM      2  C   UNL     1     103.546 113.371  90.742  1.00  0.00     0.208 A 
ATOM      3  C   UNL     1     104.564 112.577  90.187  1.00  0.00     0.238 A 
ATOM      4  O   UNL     1     104.976 111.582  90.837  1.00  0.00    -0.285 OA
ATOM      5  C   UNL     1     105.133 112.933  88.941  1.00  0.00     0.111 A 
ATOM      6  C   UNL     1     106.141 112.180  88.267  1.00  0.00     0.134 A 
ATOM      7  C   UNL     1     106.725 112.695  87.102  1.00  0.00     0.093 A 
ATOM      8  C   UNL     1     106.291 113.901  86.552  1.00  0.00     0.123 A 
ATOM      9  C   UNL     1     105.265 114.616  87.171  1.00  0.00     0.094 A 
ATOM     10  C   UNL     1     104.689 114.146  88.353  1.00  0.00     0.146 A 
ATOM     11  O   UNL     1     103.721 114.861  88.916  1.00  0.00    -0.452 OA
ENDROOT
BRANCH   1  12
ATOM     12  C   UNL     1     102.039 115.390  90.560  1.00  0.00     0.025 A 
ATOM     13  C   UNL     1     100.745 115.264  90.031  1.00  0.00     0.016 A 
ATOM     14  C   UNL     1      99.703 116.061  90.511  1.00  0.00     0.051 A 
ATOM     15  C   UNL     1      99.934 116.983  91.537  1.00  0.00     0.157 A 
ATOM     16  C   UNL     1     102.265 116.302  91.607  1.00  0.00     0.062 A 
ATOM     17  C   UNL     1     101.219 117.102  92.092  1.00  0.00     0.158 A 
BRANCH  15  18
ATOM     18  O   UNL     1      98.875 117.767  91.996  1.00  0.00    -0.504 OA
ATOM     19  H   UNL     1      98.102 117.373  92.517  1.00  0.00     0.293 HD
ENDBRANCH  15  18
BRANCH  17  20
ATOM     20  O   UNL     1     101.453 118.008  93.125  1.00  0.00    -0.504 OA
ATOM     21  H   UNL     1     100.846 118.803  93.284  1.00  0.00     0.293 HD
ENDBRANCH  17  20
ENDBRANCH   1  12
BRANCH   2  22
ATOM     22  O   UNL     1     102.986 113.050  91.983  1.00  0.00    -0.502 OA
ATOM     23  H   UNL     1     102.492 113.729  92.547  1.00  0.00     0.293 HD
ENDBRANCH   2  22
BRANCH   6  24
ATOM     24  O   UNL     1     106.583 110.919  88.681  1.00  0.00    -0.507 OA
ATOM     25  H   UNL     1     107.005 110.725  89.575  1.00  0.00     0.293 HD
ENDBRANCH   6  24
BRANCH   8  26
ATOM     26  O   UNL     1     106.883 114.375  85.383  1.00  0.00    -0.508 OA
ATOM     27  H   UNL     1     106.361 114.925  84.711  1.00  0.00     0.293 HD
ENDBRANCH   8  26
TORSDOF 6
ENDMDL
MODEL 4
REMARK VINA RESULT:    -5.245      1.798      3.413
REMARK INTER + INTRA:          -6.621
REMARK INTER:                  -7.172
REMARK INTRA:                   0.551
REMARK UNBOUND:                -0.302
REMARK SMILES O=c1c(O)c(-c2ccc(O)c(O)c2)oc2cc(O)cc(O)c12
REMARK SMILES IDX 5 1 3 2 2 3 1 4 22 5 20 6 19 7 17 8 16 9 15 10 14 11 6 12
REMARK SMILES IDX 7 13 8 14 9 15 13 16 11 17 10 18 12 20 4 22 21 24 18 26
REMARK H PARENT 10 19 12 21 4 23 21 25 18 27
REMARK Flexibility Score: inf
ROOT
ATOM      1  C   UNL     1     101.273 115.531  89.120  1.00  0.00     0.180 A 
ATOM      2  C   UNL     1     100.426 114.833  88.242  1.00  0.00     0.208 A 
ATOM      3  C   UNL     1     100.971 114.260  87.081  1.00  0.00     0.238 A 
ATOM      4  O   UNL     1     100.218 113.592  86.327  1.00  0.00    -0.285 OA
ATOM      5  C   UNL     1     102.352 114.405  86.806  1.00  0.00     0.111 A 
ATOM      6  C   UNL     1     103.003 113.900  85.641  1.00  0.00     0.134 A 
ATOM      7  C   UNL     1     104.397 113.987  85.536  1.00  0.00     0.093 A 
ATOM      8  C   UNL     1     105.156 114.619  86.521  1.00  0.00     0.123 A 
ATOM      9  C   UNL     1     104.523 115.168  87.637  1.00  0.00     0.094 A 
ATOM     10  C   UNL     1     103.138 115.065  87.787  1.00  0.00     0.146 A 
ATOM     11  O   UNL     1     102.575 115.592  88.868  1.00  0.00    -0.452 OA
ENDROOT
BRANCH   1  12
ATOM     12  C   UNL     1     100.768 116.182  90.351  1.00  0.00     0.025 A 
ATOM     13  C   UNL     1      99.405 116.089  90.671  1.00  0.00     0.016 A 
ATOM     14  C   UNL     1      98.910 116.678  91.838  1.00  0.00     0.051 A 
ATOM     15  C   UNL     1      99.771 117.354  92.708  1.00  0.00     0.157 A 
ATOM     16  C   UNL     1     101.636 116.844  91.238  1.00  0.00     0.062 A 
ATOM     17  C   UNL     1     101.142 117.434  92.410  1.00  0.00     0.158 A 
BRANCH  15  18
ATOM     18  O   UNL     1      99.249 117.934  93.864  1.00  0.00    -0.504 OA
ATOM     19  H   UNL     1      99.841 118.248  94.623  1.00  0.00     0.293 HD
ENDBRANCH  15  18
BRANCH  17  20
ATOM     20  O   UNL     1     102.008 118.094  93.281  1.00  0.00    -0.504 OA
ATOM     21  H   UNL     1     102.499 117.601  94.018  1.00  0.00     0.293 HD
ENDBRANCH  17  20
ENDBRANCH   1  12
BRANCH   2  22
ATOM     22  O   UNL     1      99.069 114.684  88.544  1.00  0.00    -0.502 OA
ATOM     23  H   UNL     1      98.342 114.807  87.851  1.00  0.00     0.293 HD
ENDBRANCH   2  22
BRANCH   6  24
ATOM     24  O   UNL     1     102.330 113.332  84.554  1.00  0.00    -0.507 OA
ATOM     25  H   UNL     1     102.489 112.401  84.204  1.00  0.00     0.293 HD
ENDBRANCH   6  24
BRANCH   8  26
ATOM     26  O   UNL     1     106.539 114.702  86.375  1.00  0.00    -0.508 OA
ATOM     27  H   UNL     1     106.978 115.508  85.947  1.00  0.00     0.293 HD
ENDBRANCH   8  26
TORSDOF 6
ENDMDL
MODEL 5
REMARK VINA RESULT:    -5.239      3.449      6.323
REMARK INTER + INTRA:          -6.613
REMARK INTER:                  -6.291
REMARK INTRA:                  -0.323
REMARK UNBOUND:                -0.302
REMARK SMILES O=c1c(O)c(-c2ccc(O)c(O)c2)oc2cc(O)cc(O)c12
REMARK SMILES IDX 5 1 3 2 2 3 1 4 22 5 20 6 19 7 17 8 16 9 15 10 14 11 6 12
REMARK SMILES IDX 7 13 8 14 9 15 13 16 11 17 10 18 12 20 4 22 21 24 18 26
REMARK H PARENT 10 19 12 21 4 23 21 25 18 27
REMARK Flexibility Score: inf
ROOT
ATOM      1  C   UNL     1     103.948 115.457  82.913  1.00  0.00     0.180 A 
ATOM      2  C   UNL     1     103.144 115.317  81.769  1.00  0.00     0.208 A 
ATOM      3  C   UNL     1     103.748 115.363  80.501  1.00  0.00     0.238 A 
ATOM      4  O   UNL     1     103.031 115.183  79.484  1.00  0.00    -0.285 OA
ATOM      5  C   UNL     1     105.145 115.564  80.395  1.00  0.00     0.111 A 
ATOM      6  C   UNL     1     105.856 115.667  79.162  1.00  0.00     0.134 A 
ATOM      7  C   UNL     1     107.256 115.735  79.175  1.00  0.00     0.093 A 
ATOM      8  C   UNL     1     107.964 115.770  80.377  1.00  0.00     0.123 A 
ATOM      9  C   UNL     1     107.274 115.729  81.589  1.00  0.00     0.094 A 
ATOM     10  C   UNL     1     105.881 115.625  81.607  1.00  0.00     0.146 A 
ATOM     11  O   UNL     1     105.263 115.578  82.782  1.00  0.00    -0.452 OA
ENDROOT
BRANCH   1  12
ATOM     12  C   UNL     1     103.380 115.444  84.281  1.00  0.00     0.025 A 
ATOM     13  C   UNL     1     102.939 116.645  84.857  1.00  0.00     0.016 A 
ATOM     14  C   UNL     1     102.380 116.653  86.138  1.00  0.00     0.051 A 
ATOM     15  C   UNL     1     102.240 115.460  86.855  1.00  0.00     0.157 A 
ATOM     16  C   UNL     1     103.218 114.243  84.994  1.00  0.00     0.062 A 
ATOM     17  C   UNL     1     102.655 114.248  86.279  1.00  0.00     0.158 A 
BRANCH  15  18
ATOM     18  O   UNL     1     101.680 115.499  88.132  1.00  0.00    -0.504 OA
ATOM     19  H   UNL     1     101.269 114.680  88.563  1.00  0.00     0.293 HD
ENDBRANCH  15  18
BRANCH  17  20
ATOM     20  O   UNL     1     102.504 113.053  86.982  1.00  0.00    -0.504 OA
ATOM     21  H   UNL     1     102.531 112.154  86.515  1.00  0.00     0.293 HD
ENDBRANCH  17  20
ENDBRANCH   1  12
BRANCH   2  22
ATOM     22  O   UNL     1     101.769 115.097  81.897  1.00  0.00    -0.502 OA
ATOM     23  H   UNL     1     101.079 115.762  81.570  1.00  0.00     0.293 HD
ENDBRANCH   2  22
BRANCH   6  24
ATOM     24  O   UNL     1     105.241 115.735  77.908  1.00  0.00    -0.507 OA
ATOM     25  H   UNL     1     105.062 114.941  77.314  1.00  0.00     0.293 HD
ENDBRANCH   6  24
BRANCH   8  26
ATOM     26  O   UNL     1     109.354 115.853  80.352  1.00  0.00    -0.508 OA
ATOM     27  H   UNL     1     109.875 116.232  81.134  1.00  0.00     0.293 HD
ENDBRANCH   8  26
TORSDOF 6
ENDMDL
MODEL 6
REMARK VINA RESULT:    -5.176      1.291      2.922
REMARK INTER + INTRA:          -6.537
REMARK INTER:                  -6.239
REMARK INTRA:                  -0.298
REMARK UNBOUND:                -0.302
REMARK SMILES O=c1c(O)c(-c2ccc(O)c(O)c2)oc2cc(O)cc(O)c12
REMARK SMILES IDX 5 1 3 2 2 3 1 4 22 5 20 6 19 7 17 8 16 9 15 10 14 11 6 12
REMARK SMILES IDX 7 13 8 14 9 15 13 16 11 17 10 18 12 20 4 22 21 24 18 26
REMARK H PARENT 10 19 12 21 4 23 21 25 18 27
REMARK Flexibility Score: inf
ROOT
ATOM      1  C   UNL     1     102.860 115.601  88.063  1.00  0.00     0.180 A 
ATOM      2  C   UNL     1     101.999 115.519  86.955  1.00  0.00     0.208 A 
ATOM      3  C   UNL     1     102.506 115.056  85.730  1.00  0.00     0.238 A 
ATOM      4  O   UNL     1     101.718 114.933  84.757  1.00  0.00    -0.285 OA
ATOM      5  C   UNL     1     103.871 114.696  85.625  1.00  0.00     0.111 A 
ATOM      6  C   UNL     1     104.501 114.252  84.423  1.00  0.00     0.134 A 
ATOM      7  C   UNL     1     105.826 113.797  84.465  1.00  0.00     0.093 A 
ATOM      8  C   UNL     1     106.562 113.832  85.649  1.00  0.00     0.123 A 
ATOM      9  C   UNL     1     105.974 114.320  86.817  1.00  0.00     0.094 A 
ATOM     10  C   UNL     1     104.644 114.746  86.814  1.00  0.00     0.146 A 
ATOM     11  O   UNL     1     104.118 115.194  87.949  1.00  0.00    -0.452 OA
ENDROOT
BRANCH   1  12
ATOM     12  C   UNL     1     102.404 116.103  89.379  1.00  0.00     0.025 A 
ATOM     13  C   UNL     1     102.617 117.448  89.717  1.00  0.00     0.016 A 
ATOM     14  C   UNL     1     102.176 117.948  90.945  1.00  0.00     0.051 A 
ATOM     15  C   UNL     1     101.502 117.117  91.846  1.00  0.00     0.157 A 
ATOM     16  C   UNL     1     101.707 115.274  90.277  1.00  0.00     0.062 A 
ATOM     17  C   UNL     1     101.261 115.775  91.509  1.00  0.00     0.158 A 
BRANCH  15  18
ATOM     18  O   UNL     1     101.076 117.643  93.065  1.00  0.00    -0.504 OA
ATOM     19  H   UNL     1     101.713 117.798  93.836  1.00  0.00     0.293 HD
ENDBRANCH  15  18
BRANCH  17  20
ATOM     20  O   UNL     1     100.577 114.944  92.396  1.00  0.00    -0.504 OA
ATOM     21  H   UNL     1     100.994 114.095  92.759  1.00  0.00     0.293 HD
ENDBRANCH  17  20
ENDBRANCH   1  12
BRANCH   2  22
ATOM     22  O   UNL     1     100.649 115.859  87.087  1.00  0.00    -0.502 OA
ATOM     23  H   UNL     1     100.338 116.815  87.208  1.00  0.00     0.293 HD
ENDBRANCH   2  22
BRANCH   6  24
ATOM     24  O   UNL     1     103.885 114.263  83.168  1.00  0.00    -0.507 OA
ATOM     25  H   UNL     1     103.052 113.746  82.933  1.00  0.00     0.293 HD
ENDBRANCH   6  24
BRANCH   8  26
ATOM     26  O   UNL     1     107.882 113.387  85.650  1.00  0.00    -0.508 OA
ATOM     27  H   UNL     1     108.650 114.010  85.429  1.00  0.00     0.293 HD
ENDBRANCH   8  26
TORSDOF 6
ENDMDL
MODEL 7
REMARK VINA RESULT:    -5.084      1.685      6.828
REMARK INTER + INTRA:          -6.426
REMARK INTER:                  -6.107
REMARK INTRA:                  -0.319
REMARK UNBOUND:                -0.302
REMARK SMILES O=c1c(O)c(-c2ccc(O)c(O)c2)oc2cc(O)cc(O)c12
REMARK SMILES IDX 5 1 3 2 2 3 1 4 22 5 20 6 19 7 17 8 16 9 15 10 14 11 6 12
REMARK SMILES IDX 7 13 8 14 9 15 13 16 11 17 10 18 12 20 4 22 21 24 18 26
REMARK H PARENT 10 19 12 21 4 23 21 25 18 27
REMARK Flexibility Score: inf
ROOT
ATOM      1  C   UNL     1     102.534 115.466  87.726  1.00  0.00     0.180 A 
ATOM      2  C   UNL     1     102.831 116.551  88.569  1.00  0.00     0.208 A 
ATOM      3  C   UNL     1     102.221 116.620  89.832  1.00  0.00     0.238 A 
ATOM      4  O   UNL     1     102.532 117.564  90.602  1.00  0.00    -0.285 OA
ATOM      5  C   UNL     1     101.310 115.611  90.229  1.00  0.00     0.111 A 
ATOM      6  C   UNL     1     100.604 115.602  91.469  1.00  0.00     0.134 A 
ATOM      7  C   UNL     1      99.827 114.487  91.813  1.00  0.00     0.093 A 
ATOM      8  C   UNL     1      99.679 113.414  90.935  1.00  0.00     0.123 A 
ATOM      9  C   UNL     1     100.318 113.440  89.695  1.00  0.00     0.094 A 
ATOM     10  C   UNL     1     101.128 114.521  89.339  1.00  0.00     0.146 A 
ATOM     11  O   UNL     1     101.727 114.503  88.154  1.00  0.00    -0.452 OA
ENDROOT
BRANCH   1  12
ATOM     12  C   UNL     1     103.120 115.338  86.371  1.00  0.00     0.025 A 
ATOM     13  C   UNL     1     102.512 115.997  85.291  1.00  0.00     0.016 A 
ATOM     14  C   UNL     1     103.059 115.907  84.009  1.00  0.00     0.051 A 
ATOM     15  C   UNL     1     104.228 115.172  83.789  1.00  0.00     0.157 A 
ATOM     16  C   UNL     1     104.307 114.617  86.153  1.00  0.00     0.062 A 
ATOM     17  C   UNL     1     104.859 114.527  84.866  1.00  0.00     0.158 A 
BRANCH  15  18
ATOM     18  O   UNL     1     104.750 115.098  82.498  1.00  0.00    -0.504 OA
ATOM     19  H   UNL     1     105.566 114.540  82.279  1.00  0.00     0.293 HD
ENDBRANCH  15  18
BRANCH  17  20
ATOM     20  O   UNL     1     106.034 113.805  84.657  1.00  0.00    -0.504 OA
ATOM     21  H   UNL     1     106.736 114.112  83.994  1.00  0.00     0.293 HD
ENDBRANCH  17  20
ENDBRANCH   1  12
BRANCH   2  22
ATOM     22  O   UNL     1     103.751 117.524  88.165  1.00  0.00    -0.502 OA
ATOM     23  H   UNL     1     103.506 118.503  88.085  1.00  0.00     0.293 HD
ENDBRANCH   2  22
BRANCH   6  24
ATOM     24  O   UNL     1     100.609 116.663  92.380  1.00  0.00    -0.507 OA
ATOM     25  H   UNL     1      99.819 116.940  92.942  1.00  0.00     0.293 HD
ENDBRANCH   6  24
BRANCH   8  26
ATOM     26  O   UNL     1      98.886 112.329  91.303  1.00  0.00    -0.508 OA
ATOM     27  H   UNL     1      98.606 112.182  92.266  1.00  0.00     0.293 HD
ENDBRANCH   8  26
TORSDOF 6
ENDMDL
MODEL 8
REMARK VINA RESULT:    -5.016     15.930     18.438
REMARK INTER + INTRA:          -6.345
REMARK INTER:                  -6.100
REMARK INTRA:                  -0.245
REMARK UNBOUND:                -0.302
REMARK SMILES O=c1c(O)c(-c2ccc(O)c(O)c2)oc2cc(O)cc(O)c12
REMARK SMILES IDX 5 1 3 2 2 3 1 4 22 5 20 6 19 7 17 8 16 9 15 10 14 11 6 12
REMARK SMILES IDX 7 13 8 14 9 15 13 16 11 17 10 18 12 20 4 22 21 24 18 26
REMARK H PARENT 10 19 12 21 4 23 21 25 18 27
REMARK Flexibility Score: inf
ROOT
ATOM      1  C   UNL     1     111.536 102.045  82.851  1.00  0.00     0.180 A 
ATOM      2  C   UNL     1     110.193 102.000  83.262  1.00  0.00     0.208 A 
ATOM      3  C   UNL     1     109.899 101.986  84.636  1.00  0.00     0.238 A 
ATOM      4  O   UNL     1     108.695 102.000  84.996  1.00  0.00    -0.285 OA
ATOM      5  C   UNL     1     110.954 102.002  85.580  1.00  0.00     0.111 A 
ATOM      6  C   UNL     1     110.774 101.951  86.995  1.00  0.00     0.134 A 
ATOM      7  C   UNL     1     111.883 102.105  87.838  1.00  0.00     0.093 A 
ATOM      8  C   UNL     1     113.169 102.242  87.318  1.00  0.00     0.123 A 
ATOM      9  C   UNL     1     113.363 102.235  85.937  1.00  0.00     0.094 A 
ATOM     10  C   UNL     1     112.273 102.119  85.070  1.00  0.00     0.146 A 
ATOM     11  O   UNL     1     112.499 102.126  83.762  1.00  0.00    -0.452 OA
ENDROOT
BRANCH   1  12
ATOM     12  C   UNL     1     111.923 102.038  81.422  1.00  0.00     0.025 A 
ATOM     13  C   UNL     1     112.513 103.181  80.860  1.00  0.00     0.016 A 
ATOM     14  C   UNL     1     112.906 103.189  79.520  1.00  0.00     0.051 A 
ATOM     15  C   UNL     1     112.731 102.051  78.725  1.00  0.00     0.157 A 
ATOM     16  C   UNL     1     111.768 100.888  80.628  1.00  0.00     0.062 A 
ATOM     17  C   UNL     1     112.164 100.893  79.282  1.00  0.00     0.158 A 
BRANCH  15  18
ATOM     18  O   UNL     1     113.131 102.089  77.390  1.00  0.00    -0.504 OA
ATOM     19  H   UNL     1     112.860 101.373  76.727  1.00  0.00     0.293 HD
ENDBRANCH  15  18
BRANCH  17  20
ATOM     20  O   UNL     1     112.000  99.750  78.500  1.00  0.00    -0.504 OA
ATOM     21  H   UNL     1     111.134  99.224  78.501  1.00  0.00     0.293 HD
ENDBRANCH  17  20
ENDBRANCH   1  12
BRANCH   2  22
ATOM     22  O   UNL     1     109.166 102.007  82.312  1.00  0.00    -0.502 OA
ATOM     23  H   UNL     1     108.456 101.286  82.274  1.00  0.00     0.293 HD
ENDBRANCH   2  22
BRANCH   6  24
ATOM     24  O   UNL     1     109.543 101.725  87.619  1.00  0.00    -0.507 OA
ATOM     25  H   UNL     1     109.055 102.400  88.185  1.00  0.00     0.293 HD
ENDBRANCH   6  24
BRANCH   8  26
ATOM     26  O   UNL     1     114.250 102.377  88.187  1.00  0.00    -0.508 OA
ATOM     27  H   UNL     1     114.870 103.177  88.140  1.00  0.00     0.293 HD
ENDBRANCH   8  26
TORSDOF 6
ENDMDL
MODEL 9
REMARK VINA RESULT:    -4.090      1.955      3.683
REMARK INTER + INTRA:          -5.229
REMARK INTER:                  -4.959
REMARK INTRA:                  -0.270
REMARK UNBOUND:                -0.302
REMARK SMILES O=c1c(O)c(-c2ccc(O)c(O)c2)oc2cc(O)cc(O)c12
REMARK SMILES IDX 5 1 3 2 2 3 1 4 22 5 20 6 19 7 17 8 16 9 15 10 14 11 6 12
REMARK SMILES IDX 7 13 8 14 9 15 13 16 11 17 10 18 12 20 4 22 21 24 18 26
REMARK H PARENT 10 19 12 21 4 23 21 25 18 27
REMARK Flexibility Score: inf
ROOT
ATOM      1  C   UNL     1     102.913 115.259  88.547  1.00  0.00     0.180 A 
ATOM      2  C   UNL     1     103.051 115.699  87.220  1.00  0.00     0.208 A 
ATOM      3  C   UNL     1     104.071 115.154  86.423  1.00  0.00     0.238 A 
ATOM      4  O   UNL     1     104.156 115.512  85.221  1.00  0.00    -0.285 OA
ATOM      5  C   UNL     1     104.950 114.188  86.970  1.00  0.00     0.111 A 
ATOM      6  C   UNL     1     106.043 113.598  86.267  1.00  0.00     0.134 A 
ATOM      7  C   UNL     1     106.767 112.557  86.864  1.00  0.00     0.093 A 
ATOM      8  C   UNL     1     106.479 112.130  88.160  1.00  0.00     0.123 A 
ATOM      9  C   UNL     1     105.450 112.741  88.878  1.00  0.00     0.094 A 
ATOM     10  C   UNL     1     104.688 113.756  88.297  1.00  0.00     0.146 A 
ATOM     11  O   UNL     1     103.711 114.304  89.010  1.00  0.00    -0.452 OA
ENDROOT
BRANCH   1  12
ATOM     12  C   UNL     1     101.877 115.805  89.454  1.00  0.00     0.025 A 
ATOM     13  C   UNL     1     100.551 115.359  89.336  1.00  0.00     0.016 A 
ATOM     14  C   UNL     1      99.562 115.844  90.195  1.00  0.00     0.051 A 
ATOM     15  C   UNL     1      99.884 116.769  91.193  1.00  0.00     0.157 A 
ATOM     16  C   UNL     1     102.203 116.718  90.473  1.00  0.00     0.062 A 
ATOM     17  C   UNL     1     101.211 117.205  91.338  1.00  0.00     0.158 A 
BRANCH  15  18
ATOM     18  O   UNL     1      98.875 117.237  92.035  1.00  0.00    -0.504 OA
ATOM     19  H   UNL     1      99.001 118.052  92.622  1.00  0.00     0.293 HD
ENDBRANCH  15  18
BRANCH  17  20
ATOM     20  O   UNL     1     101.543 118.115  92.341  1.00  0.00    -0.504 OA
ATOM     21  H   UNL     1     101.502 117.863  93.321  1.00  0.00     0.293 HD
ENDBRANCH  17  20
ENDBRANCH   1  12
BRANCH   2  22
ATOM     22  O   UNL     1     102.158 116.638  86.693  1.00  0.00    -0.502 OA
ATOM     23  H   UNL     1     102.408 117.610  86.559  1.00  0.00     0.293 HD
ENDBRANCH   2  22
BRANCH   6  24
ATOM     24  O   UNL     1     106.474 114.013  85.003  1.00  0.00    -0.507 OA
ATOM     25  H   UNL     1     107.387 114.393  84.805  1.00  0.00     0.293 HD
ENDBRANCH   6  24
BRANCH   8  26
ATOM     26  O   UNL     1     107.230 111.103  88.727  1.00  0.00    -0.508 OA
ATOM     27  H   UNL     1     107.071 110.133  88.479  1.00  0.00     0.293 HD
ENDBRANCH   8  26
TORSDOF 6
ENDMDL
