MODEL 1
REMARK VINA RESULT:     1.646      0.000      0.000
REMARK INTER + INTRA:           2.401
REMARK INTER:                   2.800
REMARK INTRA:                  -0.399
REMARK UNBOUND:                -0.399
REMARK SMILES CCCCCCCCCCCCCC(=O)[O-]
REMARK SMILES IDX 8 1 9 2 10 3 11 4 12 5 13 6 14 7 15 8 16 9 7 10 6 11 5 12
REMARK SMILES IDX 4 13 3 14 2 15 1 16
REMARK H PARENT
REMARK Flexibility Score: inf
ROOT
ATOM      1  C   UNL     1     -18.667  17.165  16.883  1.00  0.00     0.000 C 
ENDROOT
BRANCH   1   2
ATOM      2  C   UNL     1     -18.836  16.005  17.874  1.00  0.00     0.000 C 
BRANCH   2   3
ATOM      3  C   UNL     1     -19.124  16.531  19.288  1.00  0.00     0.000 C 
BRANCH   3   4
ATOM      4  C   UNL     1     -19.039  18.063  19.381  1.00  0.00     0.000 C 
BRANCH   4   5
ATOM      5  C   UNL     1     -19.112  18.574  20.831  1.00  0.00     0.006 C 
BRANCH   5   6
ATOM      6  C   UNL     1     -18.916  20.093  20.920  1.00  0.00     0.053 C 
BRANCH   6   7
ATOM      7  C   UNL     1     -18.005  20.474  22.046  1.00  0.00     0.041 C 
ATOM      8  O   UNL     1     -17.841  19.693  23.020  1.00  0.00    -0.550 OA
ATOM      9  O   UNL     1     -17.315  21.679  22.007  1.00  0.00    -0.550 OA
ENDBRANCH   6   7
ENDBRANCH   5   6
ENDBRANCH   4   5
ENDBRANCH   3   4
ENDBRANCH   2   3
ENDBRANCH   1   2
BRANCH   1  10
ATOM     10  C   UNL     1     -19.125  16.806  15.457  1.00  0.00     0.000 C 
BRANCH  10  11
ATOM     11  C   UNL     1     -18.408  17.577  14.330  1.00  0.00    -0.000 C 
BRANCH  11  12
ATOM     12  C   UNL     1     -18.812  17.172  12.898  1.00  0.00    -0.000 C 
BRANCH  12  13
ATOM     13  C   UNL     1     -17.699  17.305  11.843  1.00  0.00    -0.000 C 
BRANCH  13  14
ATOM     14  C   UNL     1     -18.246  17.518  10.422  1.00  0.00    -0.000 C 
BRANCH  14  15
ATOM     15  C   UNL     1     -17.860  16.379   9.466  1.00  0.00    -0.003 C 
ATOM     16  C   UNL     1     -16.766  15.473  10.032  1.00  0.00     0.004 C 
ENDBRANCH  14  15
ENDBRANCH  13  14
ENDBRANCH  12  13
ENDBRANCH  11  12
ENDBRANCH  10  11
ENDBRANCH   1  10
TORSDOF 12
ENDMDL
MODEL 2
REMARK VINA RESULT:     1.962      4.854      9.508
REMARK INTER + INTRA:           2.940
REMARK INTER:                   3.306
REMARK INTRA:                  -0.366
REMARK UNBOUND:                -0.399
REMARK SMILES CCCCCCCCCCCCCC(=O)[O-]
REMARK SMILES IDX 8 1 9 2 10 3 11 4 12 5 13 6 14 7 15 8 16 9 7 10 6 11 5 12
REMARK SMILES IDX 4 13 3 14 2 15 1 16
REMARK H PARENT
REMARK Flexibility Score: inf
ROOT
ATOM      1  C   UNL     1     -18.961  17.003  16.959  1.00  0.00     0.000 C 
ENDROOT
BRANCH   1   2
ATOM      2  C   UNL     1     -19.083  16.271  15.615  1.00  0.00     0.000 C 
BRANCH   2   3
ATOM      3  C   UNL     1     -18.904  17.245  14.442  1.00  0.00     0.000 C 
BRANCH   3   4
ATOM      4  C   UNL     1     -19.123  16.575  13.075  1.00  0.00     0.000 C 
BRANCH   4   5
ATOM      5  C   UNL     1     -18.871  17.534  11.898  1.00  0.00     0.006 C 
BRANCH   5   6
ATOM      6  C   UNL     1     -17.422  17.468  11.398  1.00  0.00     0.053 C 
BRANCH   6   7
ATOM      7  C   UNL     1     -17.319  16.776  10.073  1.00  0.00     0.041 C 
ATOM      8  O   UNL     1     -16.577  15.767   9.942  1.00  0.00    -0.550 OA
ATOM      9  O   UNL     1     -18.066  17.227   8.992  1.00  0.00    -0.550 OA
ENDBRANCH   6   7
ENDBRANCH   5   6
ENDBRANCH   4   5
ENDBRANCH   3   4
ENDBRANCH   2   3
ENDBRANCH   1   2
BRANCH   1  10
ATOM     10  C   UNL     1     -19.081  16.058  18.169  1.00  0.00     0.000 C 
BRANCH  10  11
ATOM     11  C   UNL     1     -19.119  16.760  19.541  1.00  0.00    -0.000 C 
BRANCH  11  12
ATOM     12  C   UNL     1     -19.013  18.298  19.496  1.00  0.00    -0.000 C 
BRANCH  12  13
ATOM     13  C   UNL     1     -19.095  18.999  20.864  1.00  0.00    -0.000 C 
BRANCH  13  14
ATOM     14  C   UNL     1     -18.778  20.501  20.785  1.00  0.00    -0.000 C 
BRANCH  14  15
ATOM     15  C   UNL     1     -18.310  21.075  22.131  1.00  0.00    -0.003 C 
ATOM     16  C   UNL     1     -17.839  19.997  23.106  1.00  0.00     0.004 C 
ENDBRANCH  14  15
ENDBRANCH  13  14
ENDBRANCH  12  13
ENDBRANCH  11  12
ENDBRANCH  10  11
ENDBRANCH   1  10
TORSDOF 12
ENDMDL
