MODEL 1
REMARK VINA RESULT:    -6.300      0.000      0.000
REMARK INTER + INTRA:         -19.379
REMARK INTER:                 -16.611
REMARK INTRA:                  -2.767
REMARK UNBOUND:                -2.767
REMARK SMILES CCCCCCCCCCCCCCCCCCCCCCCCCCCCCC(=O)[O-]
REMARK SMILES IDX 16 1 17 2 18 3 19 4 20 5 21 6 22 7 23 8 24 9 25 10 26 11
REMARK SMILES IDX 27 12 28 13 29 14 30 15 31 16 32 17 15 18 14 19 13 20 12 21
REMARK SMILES IDX 11 22 10 23 9 24 8 25 7 26 6 27 5 28 4 29 3 30 2 31 1 32
REMARK H PARENT
REMARK Flexibility Score: inf
ROOT
ATOM      1  C   UNL     1     -22.941 -22.544  32.045  1.00  0.00     0.000 C 
ENDROOT
BRANCH   1   2
ATOM      2  C   UNL     1     -21.515 -21.968  32.047  1.00  0.00     0.000 C 
BRANCH   2   3
ATOM      3  C   UNL     1     -21.413 -20.622  31.306  1.00  0.00     0.000 C 
BRANCH   3   4
ATOM      4  C   UNL     1     -22.362 -20.465  30.100  1.00  0.00     0.000 C 
BRANCH   4   5
ATOM      5  C   UNL     1     -21.683 -20.513  28.715  1.00  0.00     0.000 C 
BRANCH   5   6
ATOM      6  C   UNL     1     -21.227 -19.150  28.162  1.00  0.00     0.000 C 
BRANCH   6   7
ATOM      7  C   UNL     1     -19.980 -18.601  28.874  1.00  0.00     0.000 C 
BRANCH   7   8
ATOM      8  C   UNL     1     -20.295 -17.398  29.790  1.00  0.00     0.000 C 
BRANCH   8   9
ATOM      9  C   UNL     1     -19.450 -17.349  31.079  1.00  0.00     0.000 C 
BRANCH   9  10
ATOM     10  C   UNL     1     -18.087 -16.650  30.928  1.00  0.00     0.000 C 
BRANCH  10  11
ATOM     11  C   UNL     1     -18.162 -15.329  30.128  1.00  0.00     0.000 C 
BRANCH  11  12
ATOM     12  C   UNL     1     -17.261 -15.352  28.883  1.00  0.00     0.000 C 
BRANCH  12  13
ATOM     13  C   UNL     1     -18.051 -15.550  27.579  1.00  0.00     0.006 C 
BRANCH  13  14
ATOM     14  C   UNL     1     -17.243 -16.279  26.497  1.00  0.00     0.053 C 
BRANCH  14  15
ATOM     15  C   UNL     1     -17.254 -15.502  25.218  1.00  0.00     0.041 C 
ATOM     16  O   UNL     1     -18.346 -15.144  24.702  1.00  0.00    -0.550 OA
ATOM     17  O   UNL     1     -16.057 -15.146  24.611  1.00  0.00    -0.550 OA
ENDBRANCH  14  15
ENDBRANCH  13  14
ENDBRANCH  12  13
ENDBRANCH  11  12
ENDBRANCH  10  11
ENDBRANCH   9  10
ENDBRANCH   8   9
ENDBRANCH   7   8
ENDBRANCH   6   7
ENDBRANCH   5   6
ENDBRANCH   4   5
ENDBRANCH   3   4
ENDBRANCH   2   3
ENDBRANCH   1   2
BRANCH   1  18
ATOM     18  C   UNL     1     -23.021 -23.927  31.377  1.00  0.00     0.000 C 
BRANCH  18  19
ATOM     19  C   UNL     1     -22.074 -24.064  30.173  1.00  0.00     0.000 C 
BRANCH  19  20
ATOM     20  C   UNL     1     -22.806 -23.944  28.822  1.00  0.00     0.000 C 
BRANCH  20  21
ATOM     21  C   UNL     1     -23.100 -25.282  28.117  1.00  0.00     0.000 C 
BRANCH  21  22
ATOM     22  C   UNL     1     -24.300 -26.027  28.720  1.00  0.00     0.000 C 
BRANCH  22  23
ATOM     23  C   UNL     1     -23.836 -27.124  29.691  1.00  0.00     0.000 C 
BRANCH  23  24
ATOM     24  C   UNL     1     -24.672 -27.157  30.980  1.00  0.00    -0.000 C 
BRANCH  24  25
ATOM     25  C   UNL     1     -26.146 -27.514  30.722  1.00  0.00    -0.000 C 
BRANCH  25  26
ATOM     26  C   UNL     1     -26.329 -28.971  30.266  1.00  0.00    -0.000 C 
BRANCH  26  27
ATOM     27  C   UNL     1     -27.064 -29.101  28.915  1.00  0.00    -0.000 C 
BRANCH  27  28
ATOM     28  C   UNL     1     -26.145 -28.790  27.720  1.00  0.00    -0.000 C 
BRANCH  28  29
ATOM     29  C   UNL     1     -26.872 -28.032  26.597  1.00  0.00    -0.000 C 
BRANCH  29  30
ATOM     30  C   UNL     1     -26.820 -28.771  25.252  1.00  0.00    -0.000 C 
BRANCH  30  31
ATOM     31  C   UNL     1     -28.234 -29.073  24.738  1.00  0.00    -0.003 C 
ATOM     32  C   UNL     1     -28.675 -28.045  23.701  1.00  0.00     0.004 C 
ENDBRANCH  30  31
ENDBRANCH  29  30
ENDBRANCH  28  29
ENDBRANCH  27  28
ENDBRANCH  26  27
ENDBRANCH  25  26
ENDBRANCH  24  25
ENDBRANCH  23  24
ENDBRANCH  22  23
ENDBRANCH  21  22
ENDBRANCH  20  21
ENDBRANCH  19  20
ENDBRANCH  18  19
ENDBRANCH   1  18
TORSDOF 28
ENDMDL
MODEL 2
REMARK VINA RESULT:    -6.137      4.194     12.428
REMARK INTER + INTRA:         -18.950
REMARK INTER:                 -16.297
REMARK INTRA:                  -2.653
REMARK UNBOUND:                -2.767
REMARK SMILES CCCCCCCCCCCCCCCCCCCCCCCCCCCCCC(=O)[O-]
REMARK SMILES IDX 16 1 17 2 18 3 19 4 20 5 21 6 22 7 23 8 24 9 25 10 26 11
REMARK SMILES IDX 27 12 28 13 29 14 30 15 31 16 32 17 15 18 14 19 13 20 12 21
REMARK SMILES IDX 11 22 10 23 9 24 8 25 7 26 6 27 5 28 4 29 3 30 2 31 1 32
REMARK H PARENT
REMARK Flexibility Score: inf
ROOT
ATOM      1  C   UNL     1     -21.657 -21.959  31.799  1.00  0.00     0.000 C 
ENDROOT
BRANCH   1   2
ATOM      2  C   UNL     1     -23.090 -22.518  31.816  1.00  0.00     0.000 C 
BRANCH   2   3
ATOM      3  C   UNL     1     -23.157 -24.002  31.411  1.00  0.00     0.000 C 
BRANCH   3   4
ATOM      4  C   UNL     1     -22.288 -24.389  30.196  1.00  0.00     0.000 C 
BRANCH   4   5
ATOM      5  C   UNL     1     -23.025 -24.420  28.841  1.00  0.00     0.000 C 
BRANCH   5   6
ATOM      6  C   UNL     1     -24.221 -25.388  28.768  1.00  0.00     0.000 C 
BRANCH   6   7
ATOM      7  C   UNL     1     -23.829 -26.847  29.049  1.00  0.00     0.000 C 
BRANCH   7   8
ATOM      8  C   UNL     1     -23.975 -27.231  30.538  1.00  0.00     0.000 C 
BRANCH   8   9
ATOM      9  C   UNL     1     -25.363 -26.923  31.135  1.00  0.00     0.000 C 
BRANCH   9  10
ATOM     10  C   UNL     1     -26.526 -27.699  30.491  1.00  0.00     0.000 C 
BRANCH  10  11
ATOM     11  C   UNL     1     -26.209 -29.194  30.256  1.00  0.00     0.000 C 
BRANCH  11  12
ATOM     12  C   UNL     1     -26.604 -29.657  28.844  1.00  0.00     0.000 C 
BRANCH  12  13
ATOM     13  C   UNL     1     -27.166 -28.518  27.978  1.00  0.00     0.006 C 
BRANCH  13  14
ATOM     14  C   UNL     1     -26.232 -28.131  26.824  1.00  0.00     0.053 C 
BRANCH  14  15
ATOM     15  C   UNL     1     -26.673 -28.780  25.550  1.00  0.00     0.041 C 
ATOM     16  O   UNL     1     -25.824 -29.110  24.680  1.00  0.00    -0.550 OA
ATOM     17  O   UNL     1     -28.019 -29.046  25.334  1.00  0.00    -0.550 OA
ENDBRANCH  14  15
ENDBRANCH  13  14
ENDBRANCH  12  13
ENDBRANCH  11  12
ENDBRANCH  10  11
ENDBRANCH   9  10
ENDBRANCH   8   9
ENDBRANCH   7   8
ENDBRANCH   6   7
ENDBRANCH   5   6
ENDBRANCH   4   5
ENDBRANCH   3   4
ENDBRANCH   2   3
ENDBRANCH   1   2
BRANCH   1  18
ATOM     18  C   UNL     1     -21.539 -20.652  30.998  1.00  0.00     0.000 C 
BRANCH  18  19
ATOM     19  C   UNL     1     -22.332 -20.686  29.681  1.00  0.00     0.000 C 
BRANCH  19  20
ATOM     20  C   UNL     1     -21.514 -20.176  28.479  1.00  0.00     0.000 C 
BRANCH  20  21
ATOM     21  C   UNL     1     -20.350 -19.231  28.833  1.00  0.00     0.000 C 
BRANCH  21  22
ATOM     22  C   UNL     1     -20.818 -17.809  29.179  1.00  0.00     0.000 C 
BRANCH  22  23
ATOM     23  C   UNL     1     -20.403 -17.426  30.608  1.00  0.00     0.000 C 
BRANCH  23  24
ATOM     24  C   UNL     1     -19.040 -18.017  31.002  1.00  0.00    -0.000 C 
BRANCH  24  25
ATOM     25  C   UNL     1     -17.919 -16.963  31.012  1.00  0.00    -0.000 C 
BRANCH  25  26
ATOM     26  C   UNL     1     -18.294 -15.694  30.227  1.00  0.00    -0.000 C 
BRANCH  26  27
ATOM     27  C   UNL     1     -17.481 -15.518  28.927  1.00  0.00    -0.000 C 
BRANCH  27  28
ATOM     28  C   UNL     1     -18.280 -15.939  27.680  1.00  0.00    -0.000 C 
BRANCH  28  29
ATOM     29  C   UNL     1     -17.377 -16.254  26.477  1.00  0.00    -0.000 C 
BRANCH  29  30
ATOM     30  C   UNL     1     -17.570 -15.269  25.314  1.00  0.00    -0.000 C 
BRANCH  30  31
ATOM     31  C   UNL     1     -16.259 -15.067  24.544  1.00  0.00    -0.003 C 
ATOM     32  C   UNL     1     -15.574 -16.400  24.263  1.00  0.00     0.004 C 
ENDBRANCH  30  31
ENDBRANCH  29  30
ENDBRANCH  28  29
ENDBRANCH  27  28
ENDBRANCH  26  27
ENDBRANCH  25  26
ENDBRANCH  24  25
ENDBRANCH  23  24
ENDBRANCH  22  23
ENDBRANCH  21  22
ENDBRANCH  20  21
ENDBRANCH  19  20
ENDBRANCH  18  19
ENDBRANCH   1  18
TORSDOF 28
ENDMDL
MODEL 3
REMARK VINA RESULT:    -5.893      1.180      2.126
REMARK INTER + INTRA:         -18.308
REMARK INTER:                 -15.853
REMARK INTRA:                  -2.455
REMARK UNBOUND:                -2.767
REMARK SMILES CCCCCCCCCCCCCCCCCCCCCCCCCCCCCC(=O)[O-]
REMARK SMILES IDX 16 1 17 2 18 3 19 4 20 5 21 6 22 7 23 8 24 9 25 10 26 11
REMARK SMILES IDX 27 12 28 13 29 14 30 15 31 16 32 17 15 18 14 19 13 20 12 21
REMARK SMILES IDX 11 22 10 23 9 24 8 25 7 26 6 27 5 28 4 29 3 30 2 31 1 32
REMARK H PARENT
REMARK Flexibility Score: inf
ROOT
ATOM      1  C   UNL     1     -22.006 -22.096  28.005  1.00  0.00     0.000 C 
ENDROOT
BRANCH   1   2
ATOM      2  C   UNL     1     -21.896 -20.907  28.975  1.00  0.00     0.000 C 
BRANCH   2   3
ATOM      3  C   UNL     1     -22.582 -21.175  30.327  1.00  0.00     0.000 C 
BRANCH   3   4
ATOM      4  C   UNL     1     -21.627 -21.520  31.489  1.00  0.00     0.000 C 
BRANCH   4   5
ATOM      5  C   UNL     1     -20.526 -20.476  31.771  1.00  0.00     0.000 C 
BRANCH   5   6
ATOM      6  C   UNL     1     -20.925 -19.014  31.500  1.00  0.00     0.000 C 
BRANCH   6   7
ATOM      7  C   UNL     1     -19.740 -18.041  31.603  1.00  0.00     0.000 C 
BRANCH   7   8
ATOM      8  C   UNL     1     -18.627 -18.343  30.575  1.00  0.00     0.000 C 
BRANCH   8   9
ATOM      9  C   UNL     1     -19.127 -18.469  29.122  1.00  0.00     0.000 C 
BRANCH   9  10
ATOM     10  C   UNL     1     -19.366 -17.128  28.406  1.00  0.00     0.000 C 
BRANCH  10  11
ATOM     11  C   UNL     1     -18.473 -15.983  28.937  1.00  0.00     0.000 C 
BRANCH  11  12
ATOM     12  C   UNL     1     -17.496 -15.465  27.869  1.00  0.00     0.000 C 
BRANCH  12  13
ATOM     13  C   UNL     1     -17.434 -16.370  26.628  1.00  0.00     0.006 C 
BRANCH  13  14
ATOM     14  C   UNL     1     -17.471 -15.581  25.312  1.00  0.00     0.053 C 
BRANCH  14  15
ATOM     15  C   UNL     1     -16.112 -15.534  24.688  1.00  0.00     0.041 C 
ATOM     16  O   UNL     1     -15.870 -16.197  23.645  1.00  0.00    -0.550 OA
ATOM     17  O   UNL     1     -15.119 -14.735  25.241  1.00  0.00    -0.550 OA
ENDBRANCH  14  15
ENDBRANCH  13  14
ENDBRANCH  12  13
ENDBRANCH  11  12
ENDBRANCH  10  11
ENDBRANCH   9  10
ENDBRANCH   8   9
ENDBRANCH   7   8
ENDBRANCH   6   7
ENDBRANCH   5   6
ENDBRANCH   4   5
ENDBRANCH   3   4
ENDBRANCH   2   3
ENDBRANCH   1   2
BRANCH   1  18
ATOM     18  C   UNL     1     -21.810 -23.452  28.702  1.00  0.00     0.000 C 
BRANCH  18  19
ATOM     19  C   UNL     1     -22.847 -24.502  28.269  1.00  0.00     0.000 C 
BRANCH  19  20
ATOM     20  C   UNL     1     -23.276 -25.428  29.423  1.00  0.00     0.000 C 
BRANCH  20  21
ATOM     21  C   UNL     1     -23.127 -24.827  30.834  1.00  0.00     0.000 C 
BRANCH  21  22
ATOM     22  C   UNL     1     -24.315 -25.152  31.752  1.00  0.00     0.000 C 
BRANCH  22  23
ATOM     23  C   UNL     1     -25.506 -25.687  30.943  1.00  0.00     0.000 C 
BRANCH  23  24
ATOM     24  C   UNL     1     -25.917 -27.105  31.372  1.00  0.00    -0.000 C 
BRANCH  24  25
ATOM     25  C   UNL     1     -25.394 -28.188  30.412  1.00  0.00    -0.000 C 
BRANCH  25  26
ATOM     26  C   UNL     1     -26.499 -29.158  29.959  1.00  0.00    -0.000 C 
BRANCH  26  27
ATOM     27  C   UNL     1     -27.023 -28.865  28.537  1.00  0.00    -0.000 C 
BRANCH  27  28
ATOM     28  C   UNL     1     -26.050 -27.989  27.727  1.00  0.00    -0.000 C 
BRANCH  28  29
ATOM     29  C   UNL     1     -26.501 -27.795  26.270  1.00  0.00    -0.000 C 
BRANCH  29  30
ATOM     30  C   UNL     1     -26.738 -29.124  25.539  1.00  0.00    -0.000 C 
BRANCH  30  31
ATOM     31  C   UNL     1     -28.155 -29.184  24.956  1.00  0.00    -0.003 C 
ATOM     32  C   UNL     1     -28.415 -28.008  24.019  1.00  0.00     0.004 C 
ENDBRANCH  30  31
ENDBRANCH  29  30
ENDBRANCH  28  29
ENDBRANCH  27  28
ENDBRANCH  26  27
ENDBRANCH  25  26
ENDBRANCH  24  25
ENDBRANCH  23  24
ENDBRANCH  22  23
ENDBRANCH  21  22
ENDBRANCH  20  21
ENDBRANCH  19  20
ENDBRANCH  18  19
ENDBRANCH   1  18
TORSDOF 28
ENDMDL
MODEL 4
REMARK VINA RESULT:    -5.849      4.231     12.286
REMARK INTER + INTRA:         -18.191
REMARK INTER:                 -15.445
REMARK INTRA:                  -2.747
REMARK UNBOUND:                -2.767
REMARK SMILES CCCCCCCCCCCCCCCCCCCCCCCCCCCCCC(=O)[O-]
REMARK SMILES IDX 16 1 17 2 18 3 19 4 20 5 21 6 22 7 23 8 24 9 25 10 26 11
REMARK SMILES IDX 27 12 28 13 29 14 30 15 31 16 32 17 15 18 14 19 13 20 12 21
REMARK SMILES IDX 11 22 10 23 9 24 8 25 7 26 6 27 5 28 4 29 3 30 2 31 1 32
REMARK H PARENT
REMARK Flexibility Score: inf
ROOT
ATOM      1  C   UNL     1     -22.699 -23.957  31.346  1.00  0.00     0.000 C 
ENDROOT
BRANCH   1   2
ATOM      2  C   UNL     1     -21.869 -24.074  30.056  1.00  0.00     0.000 C 
BRANCH   2   3
ATOM      3  C   UNL     1     -22.730 -23.998  28.782  1.00  0.00     0.000 C 
BRANCH   3   4
ATOM      4  C   UNL     1     -23.046 -25.357  28.123  1.00  0.00     0.000 C 
BRANCH   4   5
ATOM      5  C   UNL     1     -24.005 -26.269  28.916  1.00  0.00     0.000 C 
BRANCH   5   6
ATOM      6  C   UNL     1     -25.337 -25.616  29.329  1.00  0.00     0.000 C 
BRANCH   6   7
ATOM      7  C   UNL     1     -25.588 -25.673  30.844  1.00  0.00     0.000 C 
BRANCH   7   8
ATOM      8  C   UNL     1     -25.260 -27.053  31.454  1.00  0.00     0.000 C 
BRANCH   8   9
ATOM      9  C   UNL     1     -26.282 -28.155  31.108  1.00  0.00     0.000 C 
BRANCH   9  10
ATOM     10  C   UNL     1     -25.700 -29.351  30.334  1.00  0.00     0.000 C 
BRANCH  10  11
ATOM     11  C   UNL     1     -26.703 -29.986  29.343  1.00  0.00     0.000 C 
BRANCH  11  12
ATOM     12  C   UNL     1     -27.335 -28.943  28.407  1.00  0.00     0.000 C 
BRANCH  12  13
ATOM     13  C   UNL     1     -26.313 -28.291  27.462  1.00  0.00     0.006 C 
BRANCH  13  14
ATOM     14  C   UNL     1     -26.935 -27.830  26.139  1.00  0.00     0.053 C 
BRANCH  14  15
ATOM     15  C   UNL     1     -26.850 -28.913  25.110  1.00  0.00     0.041 C 
ATOM     16  O   UNL     1     -25.734 -29.246  24.631  1.00  0.00    -0.550 OA
ATOM     17  O   UNL     1     -27.999 -29.577  24.701  1.00  0.00    -0.550 OA
ENDBRANCH  14  15
ENDBRANCH  13  14
ENDBRANCH  12  13
ENDBRANCH  11  12
ENDBRANCH  10  11
ENDBRANCH   9  10
ENDBRANCH   8   9
ENDBRANCH   7   8
ENDBRANCH   6   7
ENDBRANCH   5   6
ENDBRANCH   4   5
ENDBRANCH   3   4
ENDBRANCH   2   3
ENDBRANCH   1   2
BRANCH   1  18
ATOM     18  C   UNL     1     -22.907 -22.499  31.787  1.00  0.00     0.000 C 
BRANCH  18  19
ATOM     19  C   UNL     1     -21.817 -21.553  31.257  1.00  0.00     0.000 C 
BRANCH  19  20
ATOM     20  C   UNL     1     -22.384 -20.427  30.371  1.00  0.00     0.000 C 
BRANCH  20  21
ATOM     21  C   UNL     1     -22.356 -20.709  28.857  1.00  0.00     0.000 C 
BRANCH  21  22
ATOM     22  C   UNL     1     -21.453 -19.736  28.083  1.00  0.00     0.000 C 
BRANCH  22  23
ATOM     23  C   UNL     1     -20.852 -18.678  29.021  1.00  0.00     0.000 C 
BRANCH  23  24
ATOM     24  C   UNL     1     -19.346 -18.880  29.245  1.00  0.00    -0.000 C 
BRANCH  24  25
ATOM     25  C   UNL     1     -18.895 -18.460  30.655  1.00  0.00    -0.000 C 
BRANCH  25  26
ATOM     26  C   UNL     1     -19.601 -17.184  31.145  1.00  0.00    -0.000 C 
BRANCH  26  27
ATOM     27  C   UNL     1     -19.275 -15.940  30.293  1.00  0.00    -0.000 C 
BRANCH  27  28
ATOM     28  C   UNL     1     -17.766 -15.798  30.023  1.00  0.00    -0.000 C 
BRANCH  28  29
ATOM     29  C   UNL     1     -17.466 -15.119  28.677  1.00  0.00    -0.000 C 
BRANCH  29  30
ATOM     30  C   UNL     1     -17.682 -16.055  27.479  1.00  0.00    -0.000 C 
BRANCH  30  31
ATOM     31  C   UNL     1     -17.039 -15.479  26.211  1.00  0.00    -0.003 C 
ATOM     32  C   UNL     1     -18.074 -15.287  25.107  1.00  0.00     0.004 C 
ENDBRANCH  30  31
ENDBRANCH  29  30
ENDBRANCH  28  29
ENDBRANCH  27  28
ENDBRANCH  26  27
ENDBRANCH  25  26
ENDBRANCH  24  25
ENDBRANCH  23  24
ENDBRANCH  22  23
ENDBRANCH  21  22
ENDBRANCH  20  21
ENDBRANCH  19  20
ENDBRANCH  18  19
ENDBRANCH   1  18
TORSDOF 28
ENDMDL
MODEL 5
REMARK VINA RESULT:    -5.836      0.962      2.252
REMARK INTER + INTRA:         -18.156
REMARK INTER:                 -15.859
REMARK INTRA:                  -2.297
REMARK UNBOUND:                -2.767
REMARK SMILES CCCCCCCCCCCCCCCCCCCCCCCCCCCCCC(=O)[O-]
REMARK SMILES IDX 16 1 17 2 18 3 19 4 20 5 21 6 22 7 23 8 24 9 25 10 26 11
REMARK SMILES IDX 27 12 28 13 29 14 30 15 31 16 32 17 15 18 14 19 13 20 12 21
REMARK SMILES IDX 11 22 10 23 9 24 8 25 7 26 6 27 5 28 4 29 3 30 2 31 1 32
REMARK H PARENT
REMARK Flexibility Score: inf
ROOT
ATOM      1  C   UNL     1     -22.299 -20.550  30.318  1.00  0.00     0.000 C 
ENDROOT
BRANCH   1   2
ATOM      2  C   UNL     1     -22.121 -20.911  28.833  1.00  0.00     0.000 C 
BRANCH   2   3
ATOM      3  C   UNL     1     -21.542 -19.751  28.002  1.00  0.00     0.000 C 
BRANCH   3   4
ATOM      4  C   UNL     1     -20.984 -18.571  28.823  1.00  0.00     0.000 C 
BRANCH   4   5
ATOM      5  C   UNL     1     -19.476 -18.643  29.142  1.00  0.00     0.000 C 
BRANCH   5   6
ATOM      6  C   UNL     1     -19.131 -18.927  30.616  1.00  0.00     0.000 C 
BRANCH   6   7
ATOM      7  C   UNL     1     -19.640 -17.836  31.571  1.00  0.00     0.000 C 
BRANCH   7   8
ATOM      8  C   UNL     1     -19.470 -16.412  30.998  1.00  0.00     0.000 C 
BRANCH   8   9
ATOM      9  C   UNL     1     -18.036 -16.084  30.536  1.00  0.00     0.000 C 
BRANCH   9  10
ATOM     10  C   UNL     1     -17.893 -14.752  29.778  1.00  0.00     0.000 C 
BRANCH  10  11
ATOM     11  C   UNL     1     -17.383 -14.923  28.329  1.00  0.00     0.000 C 
BRANCH  11  12
ATOM     12  C   UNL     1     -18.233 -15.924  27.528  1.00  0.00     0.000 C 
BRANCH  12  13
ATOM     13  C   UNL     1     -17.495 -16.486  26.302  1.00  0.00     0.006 C 
BRANCH  13  14
ATOM     14  C   UNL     1     -17.396 -15.476  25.152  1.00  0.00     0.053 C 
BRANCH  14  15
ATOM     15  C   UNL     1     -15.994 -15.406  24.632  1.00  0.00     0.041 C 
ATOM     16  O   UNL     1     -15.150 -14.651  25.182  1.00  0.00    -0.550 OA
ATOM     17  O   UNL     1     -15.611 -16.198  23.557  1.00  0.00    -0.550 OA
ENDBRANCH  14  15
ENDBRANCH  13  14
ENDBRANCH  12  13
ENDBRANCH  11  12
ENDBRANCH  10  11
ENDBRANCH   9  10
ENDBRANCH   8   9
ENDBRANCH   7   8
ENDBRANCH   6   7
ENDBRANCH   5   6
ENDBRANCH   4   5
ENDBRANCH   3   4
ENDBRANCH   2   3
ENDBRANCH   1   2
BRANCH   1  18
ATOM     18  C   UNL     1     -21.569 -21.523  31.257  1.00  0.00     0.000 C 
BRANCH  18  19
ATOM     19  C   UNL     1     -22.531 -22.431  32.041  1.00  0.00     0.000 C 
BRANCH  19  20
ATOM     20  C   UNL     1     -23.174 -23.521  31.161  1.00  0.00     0.000 C 
BRANCH  20  21
ATOM     21  C   UNL     1     -22.219 -24.202  30.162  1.00  0.00     0.000 C 
BRANCH  21  22
ATOM     22  C   UNL     1     -22.910 -24.599  28.849  1.00  0.00     0.000 C 
BRANCH  22  23
ATOM     23  C   UNL     1     -23.741 -25.879  29.029  1.00  0.00     0.000 C 
BRANCH  23  24
ATOM     24  C   UNL     1     -25.199 -25.581  29.412  1.00  0.00    -0.000 C 
BRANCH  24  25
ATOM     25  C   UNL     1     -25.560 -26.101  30.815  1.00  0.00    -0.000 C 
BRANCH  25  26
ATOM     26  C   UNL     1     -25.310 -27.611  30.968  1.00  0.00    -0.000 C 
BRANCH  26  27
ATOM     27  C   UNL     1     -26.456 -28.480  30.410  1.00  0.00    -0.000 C 
BRANCH  27  28
ATOM     28  C   UNL     1     -26.096 -29.119  29.056  1.00  0.00    -0.000 C 
BRANCH  28  29
ATOM     29  C   UNL     1     -27.147 -28.837  27.970  1.00  0.00    -0.000 C 
BRANCH  29  30
ATOM     30  C   UNL     1     -26.554 -28.139  26.737  1.00  0.00    -0.000 C 
BRANCH  30  31
ATOM     31  C   UNL     1     -26.742 -28.996  25.479  1.00  0.00    -0.003 C 
ATOM     32  C   UNL     1     -28.032 -28.631  24.751  1.00  0.00     0.004 C 
ENDBRANCH  30  31
ENDBRANCH  29  30
ENDBRANCH  28  29
ENDBRANCH  27  28
ENDBRANCH  26  27
ENDBRANCH  25  26
ENDBRANCH  24  25
ENDBRANCH  23  24
ENDBRANCH  22  23
ENDBRANCH  21  22
ENDBRANCH  20  21
ENDBRANCH  19  20
ENDBRANCH  18  19
ENDBRANCH   1  18
TORSDOF 28
ENDMDL
MODEL 6
REMARK VINA RESULT:    -5.817      4.344     12.564
REMARK INTER + INTRA:         -18.107
REMARK INTER:                 -15.666
REMARK INTRA:                  -2.441
REMARK UNBOUND:                -2.767
REMARK SMILES CCCCCCCCCCCCCCCCCCCCCCCCCCCCCC(=O)[O-]
REMARK SMILES IDX 16 1 17 2 18 3 19 4 20 5 21 6 22 7 23 8 24 9 25 10 26 11
REMARK SMILES IDX 27 12 28 13 29 14 30 15 31 16 32 17 15 18 14 19 13 20 12 21
REMARK SMILES IDX 11 22 10 23 9 24 8 25 7 26 6 27 5 28 4 29 3 30 2 31 1 32
REMARK H PARENT
REMARK Flexibility Score: inf
ROOT
ATOM      1  C   UNL     1     -22.097 -22.480  28.565  1.00  0.00     0.000 C 
ENDROOT
BRANCH   1   2
ATOM      2  C   UNL     1     -21.675 -23.157  29.880  1.00  0.00     0.000 C 
BRANCH   2   3
ATOM      3  C   UNL     1     -22.237 -22.447  31.125  1.00  0.00     0.000 C 
BRANCH   3   4
ATOM      4  C   UNL     1     -23.173 -23.304  32.002  1.00  0.00     0.000 C 
BRANCH   4   5
ATOM      5  C   UNL     1     -23.373 -24.759  31.528  1.00  0.00     0.000 C 
BRANCH   5   6
ATOM      6  C   UNL     1     -24.749 -25.062  30.907  1.00  0.00     0.000 C 
BRANCH   6   7
ATOM      7  C   UNL     1     -24.669 -25.390  29.407  1.00  0.00     0.000 C 
BRANCH   7   8
ATOM      8  C   UNL     1     -24.283 -26.860  29.135  1.00  0.00     0.000 C 
BRANCH   8   9
ATOM      9  C   UNL     1     -24.676 -27.835  30.264  1.00  0.00     0.000 C 
BRANCH   9  10
ATOM     10  C   UNL     1     -26.169 -28.208  30.300  1.00  0.00     0.000 C 
BRANCH  10  11
ATOM     11  C   UNL     1     -26.527 -29.392  29.373  1.00  0.00     0.000 C 
BRANCH  11  12
ATOM     12  C   UNL     1     -27.313 -28.941  28.131  1.00  0.00     0.000 C 
BRANCH  12  13
ATOM     13  C   UNL     1     -26.466 -28.100  27.162  1.00  0.00     0.006 C 
BRANCH  13  14
ATOM     14  C   UNL     1     -26.346 -28.735  25.771  1.00  0.00     0.053 C 
BRANCH  14  15
ATOM     15  C   UNL     1     -27.660 -28.690  25.056  1.00  0.00     0.041 C 
ATOM     16  O   UNL     1     -28.357 -29.733  24.944  1.00  0.00    -0.550 OA
ATOM     17  O   UNL     1     -28.130 -27.490  24.537  1.00  0.00    -0.550 OA
ENDBRANCH  14  15
ENDBRANCH  13  14
ENDBRANCH  12  13
ENDBRANCH  11  12
ENDBRANCH  10  11
ENDBRANCH   9  10
ENDBRANCH   8   9
ENDBRANCH   7   8
ENDBRANCH   6   7
ENDBRANCH   5   6
ENDBRANCH   4   5
ENDBRANCH   3   4
ENDBRANCH   2   3
ENDBRANCH   1   2
BRANCH   1  18
ATOM     18  C   UNL     1     -22.528 -21.017  28.762  1.00  0.00     0.000 C 
BRANCH  18  19
ATOM     19  C   UNL     1     -21.628 -20.022  28.010  1.00  0.00     0.000 C 
BRANCH  19  20
ATOM     20  C   UNL     1     -20.828 -19.108  28.957  1.00  0.00     0.000 C 
BRANCH  20  21
ATOM     21  C   UNL     1     -21.311 -19.098  30.420  1.00  0.00     0.000 C 
BRANCH  21  22
ATOM     22  C   UNL     1     -20.159 -19.187  31.432  1.00  0.00     0.000 C 
BRANCH  22  23
ATOM     23  C   UNL     1     -18.856 -18.637  30.832  1.00  0.00     0.000 C 
BRANCH  23  24
ATOM     24  C   UNL     1     -18.351 -17.389  31.574  1.00  0.00    -0.000 C 
BRANCH  24  25
ATOM     25  C   UNL     1     -18.535 -16.100  30.755  1.00  0.00    -0.000 C 
BRANCH  25  26
ATOM     26  C   UNL     1     -18.609 -16.366  29.242  1.00  0.00    -0.000 C 
BRANCH  26  27
ATOM     27  C   UNL     1     -17.564 -15.572  28.430  1.00  0.00    -0.000 C 
BRANCH  27  28
ATOM     28  C   UNL     1     -17.259 -16.230  27.071  1.00  0.00    -0.000 C 
BRANCH  28  29
ATOM     29  C   UNL     1     -18.046 -15.593  25.915  1.00  0.00    -0.000 C 
BRANCH  29  30
ATOM     30  C   UNL     1     -17.147 -14.822  24.938  1.00  0.00    -0.000 C 
BRANCH  30  31
ATOM     31  C   UNL     1     -15.755 -15.461  24.853  1.00  0.00    -0.003 C 
ATOM     32  C   UNL     1     -15.609 -16.295  23.583  1.00  0.00     0.004 C 
ENDBRANCH  30  31
ENDBRANCH  29  30
ENDBRANCH  28  29
ENDBRANCH  27  28
ENDBRANCH  26  27
ENDBRANCH  25  26
ENDBRANCH  24  25
ENDBRANCH  23  24
ENDBRANCH  22  23
ENDBRANCH  21  22
ENDBRANCH  20  21
ENDBRANCH  19  20
ENDBRANCH  18  19
ENDBRANCH   1  18
TORSDOF 28
ENDMDL
MODEL 7
REMARK VINA RESULT:    -4.731      5.721     13.867
REMARK INTER + INTRA:         -15.243
REMARK INTER:                 -14.077
REMARK INTRA:                  -1.166
REMARK UNBOUND:                -2.767
REMARK SMILES CCCCCCCCCCCCCCCCCCCCCCCCCCCCCC(=O)[O-]
REMARK SMILES IDX 16 1 17 2 18 3 19 4 20 5 21 6 22 7 23 8 24 9 25 10 26 11
REMARK SMILES IDX 27 12 28 13 29 14 30 15 31 16 32 17 15 18 14 19 13 20 12 21
REMARK SMILES IDX 11 22 10 23 9 24 8 25 7 26 6 27 5 28 4 29 3 30 2 31 1 32
REMARK H PARENT
REMARK Flexibility Score: inf
ROOT
ATOM      1  C   UNL     1     -19.933 -18.209  29.353  1.00  0.00     0.000 C 
ENDROOT
BRANCH   1   2
ATOM      2  C   UNL     1     -21.054 -18.988  28.644  1.00  0.00     0.000 C 
BRANCH   2   3
ATOM      3  C   UNL     1     -21.633 -20.122  29.510  1.00  0.00     0.000 C 
BRANCH   3   4
ATOM      4  C   UNL     1     -21.265 -20.057  31.007  1.00  0.00     0.000 C 
BRANCH   4   5
ATOM      5  C   UNL     1     -21.264 -21.411  31.746  1.00  0.00     0.000 C 
BRANCH   5   6
ATOM      6  C   UNL     1     -22.468 -22.323  31.443  1.00  0.00     0.000 C 
BRANCH   6   7
ATOM      7  C   UNL     1     -22.059 -23.666  30.815  1.00  0.00     0.000 C 
BRANCH   7   8
ATOM      8  C   UNL     1     -21.978 -23.605  29.274  1.00  0.00     0.000 C 
BRANCH   8   9
ATOM      9  C   UNL     1     -23.150 -24.302  28.552  1.00  0.00     0.000 C 
BRANCH   9  10
ATOM     10  C   UNL     1     -23.355 -25.778  28.937  1.00  0.00     0.000 C 
BRANCH  10  11
ATOM     11  C   UNL     1     -24.841 -26.204  28.959  1.00  0.00     0.000 C 
BRANCH  11  12
ATOM     12  C   UNL     1     -25.113 -27.409  28.043  1.00  0.00     0.000 C 
BRANCH  12  13
ATOM     13  C   UNL     1     -26.590 -27.524  27.632  1.00  0.00     0.006 C 
BRANCH  13  14
ATOM     14  C   UNL     1     -26.922 -28.869  26.972  1.00  0.00     0.053 C 
BRANCH  14  15
ATOM     15  C   UNL     1     -26.934 -28.735  25.482  1.00  0.00     0.041 C 
ATOM     16  O   UNL     1     -27.943 -28.261  24.896  1.00  0.00    -0.550 OA
ATOM     17  O   UNL     1     -25.819 -29.107  24.741  1.00  0.00    -0.550 OA
ENDBRANCH  14  15
ENDBRANCH  13  14
ENDBRANCH  12  13
ENDBRANCH  11  12
ENDBRANCH  10  11
ENDBRANCH   9  10
ENDBRANCH   8   9
ENDBRANCH   7   8
ENDBRANCH   6   7
ENDBRANCH   5   6
ENDBRANCH   4   5
ENDBRANCH   3   4
ENDBRANCH   2   3
ENDBRANCH   1   2
BRANCH   1  18
ATOM     18  C   UNL     1     -19.078 -17.382  28.380  1.00  0.00     0.000 C 
BRANCH  18  19
ATOM     19  C   UNL     1     -18.311 -16.246  29.076  1.00  0.00     0.000 C 
BRANCH  19  20
ATOM     20  C   UNL     1     -17.501 -15.382  28.090  1.00  0.00     0.000 C 
BRANCH  20  21
ATOM     21  C   UNL     1     -17.129 -16.075  26.765  1.00  0.00     0.000 C 
BRANCH  21  22
ATOM     22  C   UNL     1     -17.551 -15.269  25.528  1.00  0.00     0.000 C 
BRANCH  22  23
ATOM     23  C   UNL     1     -16.362 -15.053  24.579  1.00  0.00     0.000 C 
BRANCH  23  24
ATOM     24  C   UNL     1     -15.927 -16.350  23.880  1.00  0.00    -0.000 C 
BRANCH  24  25
ATOM     25  C   UNL     1     -14.744 -16.137  22.918  1.00  0.00    -0.000 C 
BRANCH  25  26
ATOM     26  C   UNL     1     -14.993 -16.753  21.531  1.00  0.00    -0.000 C 
BRANCH  26  27
ATOM     27  C   UNL     1     -13.746 -16.735  20.622  1.00  0.00    -0.000 C 
BRANCH  27  28
ATOM     28  C   UNL     1     -14.114 -16.735  19.127  1.00  0.00    -0.000 C 
BRANCH  28  29
ATOM     29  C   UNL     1     -12.971 -16.225  18.236  1.00  0.00    -0.000 C 
BRANCH  29  30
ATOM     30  C   UNL     1     -12.222 -17.360  17.522  1.00  0.00    -0.000 C 
BRANCH  30  31
ATOM     31  C   UNL     1     -13.003 -17.844  16.294  1.00  0.00    -0.003 C 
ATOM     32  C   UNL     1     -12.128 -17.830  15.044  1.00  0.00     0.004 C 
ENDBRANCH  30  31
ENDBRANCH  29  30
ENDBRANCH  28  29
ENDBRANCH  27  28
ENDBRANCH  26  27
ENDBRANCH  25  26
ENDBRANCH  24  25
ENDBRANCH  23  24
ENDBRANCH  22  23
ENDBRANCH  21  22
ENDBRANCH  20  21
ENDBRANCH  19  20
ENDBRANCH  18  19
ENDBRANCH   1  18
TORSDOF 28
ENDMDL
MODEL 8
REMARK VINA RESULT:    -4.645      1.182      2.263
REMARK INTER + INTRA:         -15.016
REMARK INTER:                 -13.026
REMARK INTRA:                  -1.991
REMARK UNBOUND:                -2.767
REMARK SMILES CCCCCCCCCCCCCCCCCCCCCCCCCCCCCC(=O)[O-]
REMARK SMILES IDX 16 1 17 2 18 3 19 4 20 5 21 6 22 7 23 8 24 9 25 10 26 11
REMARK SMILES IDX 27 12 28 13 29 14 30 15 31 16 32 17 15 18 14 19 13 20 12 21
REMARK SMILES IDX 11 22 10 23 9 24 8 25 7 26 6 27 5 28 4 29 3 30 2 31 1 32
REMARK H PARENT
REMARK Flexibility Score: inf
ROOT
ATOM      1  C   UNL     1     -22.699 -24.306  28.251  1.00  0.00     0.000 C 
ENDROOT
BRANCH   1   2
ATOM      2  C   UNL     1     -22.140 -23.044  28.930  1.00  0.00     0.000 C 
BRANCH   2   3
ATOM      3  C   UNL     1     -22.224 -21.796  28.032  1.00  0.00     0.000 C 
BRANCH   3   4
ATOM      4  C   UNL     1     -22.320 -20.452  28.785  1.00  0.00     0.000 C 
BRANCH   4   5
ATOM      5  C   UNL     1     -21.306 -19.375  28.346  1.00  0.00     0.000 C 
BRANCH   5   6
ATOM      6  C   UNL     1     -20.187 -19.076  29.361  1.00  0.00     0.000 C 
BRANCH   6   7
ATOM      7  C   UNL     1     -20.643 -19.237  30.820  1.00  0.00     0.000 C 
BRANCH   7   8
ATOM      8  C   UNL     1     -19.919 -18.272  31.784  1.00  0.00     0.000 C 
BRANCH   8   9
ATOM      9  C   UNL     1     -18.561 -17.760  31.261  1.00  0.00     0.000 C 
BRANCH   9  10
ATOM     10  C   UNL     1     -18.473 -16.233  31.088  1.00  0.00     0.000 C 
BRANCH  10  11
ATOM     11  C   UNL     1     -17.886 -15.804  29.724  1.00  0.00     0.000 C 
BRANCH  11  12
ATOM     12  C   UNL     1     -18.715 -16.334  28.542  1.00  0.00     0.000 C 
BRANCH  12  13
ATOM     13  C   UNL     1     -17.866 -16.597  27.288  1.00  0.00     0.006 C 
BRANCH  13  14
ATOM     14  C   UNL     1     -17.180 -15.333  26.756  1.00  0.00     0.053 C 
BRANCH  14  15
ATOM     15  C   UNL     1     -17.232 -15.294  25.261  1.00  0.00     0.041 C 
ATOM     16  O   UNL     1     -16.171 -15.367  24.587  1.00  0.00    -0.550 OA
ATOM     17  O   UNL     1     -18.456 -15.207  24.610  1.00  0.00    -0.550 OA
ENDBRANCH  14  15
ENDBRANCH  13  14
ENDBRANCH  12  13
ENDBRANCH  11  12
ENDBRANCH  10  11
ENDBRANCH   9  10
ENDBRANCH   8   9
ENDBRANCH   7   8
ENDBRANCH   6   7
ENDBRANCH   5   6
ENDBRANCH   4   5
ENDBRANCH   3   4
ENDBRANCH   2   3
ENDBRANCH   1   2
BRANCH   1  18
ATOM     18  C   UNL     1     -23.048 -25.415  29.257  1.00  0.00     0.000 C 
BRANCH  18  19
ATOM     19  C   UNL     1     -22.813 -24.994  30.717  1.00  0.00     0.000 C 
BRANCH  19  20
ATOM     20  C   UNL     1     -24.125 -24.770  31.492  1.00  0.00     0.000 C 
BRANCH  20  21
ATOM     21  C   UNL     1     -25.328 -25.596  30.995  1.00  0.00     0.000 C 
BRANCH  21  22
ATOM     22  C   UNL     1     -25.245 -27.076  31.398  1.00  0.00     0.000 C 
BRANCH  22  23
ATOM     23  C   UNL     1     -26.538 -27.820  31.033  1.00  0.00     0.000 C 
BRANCH  23  24
ATOM     24  C   UNL     1     -26.268 -29.213  30.445  1.00  0.00    -0.000 C 
BRANCH  24  25
ATOM     25  C   UNL     1     -26.535 -29.279  28.931  1.00  0.00    -0.000 C 
BRANCH  25  26
ATOM     26  C   UNL     1     -26.234 -27.949  28.220  1.00  0.00    -0.000 C 
BRANCH  26  27
ATOM     27  C   UNL     1     -26.840 -27.863  26.804  1.00  0.00    -0.000 C 
BRANCH  27  28
ATOM     28  C   UNL     1     -26.092 -28.754  25.795  1.00  0.00    -0.000 C 
BRANCH  28  29
ATOM     29  C   UNL     1     -26.990 -29.221  24.639  1.00  0.00    -0.000 C 
BRANCH  29  30
ATOM     30  C   UNL     1     -28.445 -29.455  25.072  1.00  0.00    -0.000 C 
BRANCH  30  31
ATOM     31  C   UNL     1     -29.415 -28.663  24.186  1.00  0.00    -0.003 C 
ATOM     32  C   UNL     1     -28.671 -27.641  23.331  1.00  0.00     0.004 C 
ENDBRANCH  30  31
ENDBRANCH  29  30
ENDBRANCH  28  29
ENDBRANCH  27  28
ENDBRANCH  26  27
ENDBRANCH  25  26
ENDBRANCH  24  25
ENDBRANCH  23  24
ENDBRANCH  22  23
ENDBRANCH  21  22
ENDBRANCH  20  21
ENDBRANCH  19  20
ENDBRANCH  18  19
ENDBRANCH   1  18
TORSDOF 28
ENDMDL
MODEL 9
REMARK VINA RESULT:    -4.623      5.350     13.428
REMARK INTER + INTRA:         -14.957
REMARK INTER:                 -13.302
REMARK INTRA:                  -1.655
REMARK UNBOUND:                -2.767
REMARK SMILES CCCCCCCCCCCCCCCCCCCCCCCCCCCCCC(=O)[O-]
REMARK SMILES IDX 16 1 17 2 18 3 19 4 20 5 21 6 22 7 23 8 24 9 25 10 26 11
REMARK SMILES IDX 27 12 28 13 29 14 30 15 31 16 32 17 15 18 14 19 13 20 12 21
REMARK SMILES IDX 11 22 10 23 9 24 8 25 7 26 6 27 5 28 4 29 3 30 2 31 1 32
REMARK H PARENT
REMARK Flexibility Score: inf
ROOT
ATOM      1  C   UNL     1     -25.203 -25.832  30.643  1.00  0.00     0.000 C 
ENDROOT
BRANCH   1   2
ATOM      2  C   UNL     1     -25.339 -25.752  29.113  1.00  0.00     0.000 C 
BRANCH   2   3
ATOM      3  C   UNL     1     -25.112 -27.109  28.421  1.00  0.00     0.000 C 
BRANCH   3   4
ATOM      4  C   UNL     1     -26.104 -28.222  28.819  1.00  0.00     0.000 C 
BRANCH   4   5
ATOM      5  C   UNL     1     -26.876 -28.868  27.651  1.00  0.00     0.000 C 
BRANCH   5   6
ATOM      6  C   UNL     1     -26.726 -28.155  26.294  1.00  0.00     0.000 C 
BRANCH   6   7
ATOM      7  C   UNL     1     -27.054 -29.065  25.099  1.00  0.00     0.000 C 
BRANCH   7   8
ATOM      8  C   UNL     1     -28.469 -28.819  24.530  1.00  0.00     0.000 C 
BRANCH   8   9
ATOM      9  C   UNL     1     -28.520 -27.777  23.395  1.00  0.00     0.000 C 
BRANCH   9  10
ATOM     10  C   UNL     1     -29.640 -28.004  22.364  1.00  0.00     0.000 C 
BRANCH  10  11
ATOM     11  C   UNL     1     -29.421 -27.234  21.041  1.00  0.00     0.000 C 
BRANCH  11  12
ATOM     12  C   UNL     1     -30.555 -27.478  20.032  1.00  0.00     0.000 C 
BRANCH  12  13
ATOM     13  C   UNL     1     -30.357 -26.711  18.715  1.00  0.00     0.006 C 
BRANCH  13  14
ATOM     14  C   UNL     1     -31.530 -26.887  17.741  1.00  0.00     0.053 C 
BRANCH  14  15
ATOM     15  C   UNL     1     -31.238 -26.212  16.438  1.00  0.00     0.041 C 
ATOM     16  O   UNL     1     -30.492 -25.198  16.402  1.00  0.00    -0.550 OA
ATOM     17  O   UNL     1     -31.765 -26.720  15.258  1.00  0.00    -0.550 OA
ENDBRANCH  14  15
ENDBRANCH  13  14
ENDBRANCH  12  13
ENDBRANCH  11  12
ENDBRANCH  10  11
ENDBRANCH   9  10
ENDBRANCH   8   9
ENDBRANCH   7   8
ENDBRANCH   6   7
ENDBRANCH   5   6
ENDBRANCH   4   5
ENDBRANCH   3   4
ENDBRANCH   2   3
ENDBRANCH   1   2
BRANCH   1  18
ATOM     18  C   UNL     1     -23.796 -25.453  31.134  1.00  0.00     0.000 C 
BRANCH  18  19
ATOM     19  C   UNL     1     -23.705 -23.997  31.620  1.00  0.00     0.000 C 
BRANCH  19  20
ATOM     20  C   UNL     1     -22.476 -23.257  31.060  1.00  0.00     0.000 C 
BRANCH  20  21
ATOM     21  C   UNL     1     -21.967 -23.770  29.699  1.00  0.00     0.000 C 
BRANCH  21  22
ATOM     22  C   UNL     1     -21.660 -22.637  28.708  1.00  0.00     0.000 C 
BRANCH  22  23
ATOM     23  C   UNL     1     -22.776 -21.580  28.718  1.00  0.00     0.000 C 
BRANCH  23  24
ATOM     24  C   UNL     1     -22.230 -20.153  28.885  1.00  0.00    -0.000 C 
BRANCH  24  25
ATOM     25  C   UNL     1     -20.847 -20.123  29.558  1.00  0.00    -0.000 C 
BRANCH  25  26
ATOM     26  C   UNL     1     -20.829 -19.261  30.832  1.00  0.00    -0.000 C 
BRANCH  26  27
ATOM     27  C   UNL     1     -19.584 -18.356  30.939  1.00  0.00    -0.000 C 
BRANCH  27  28
ATOM     28  C   UNL     1     -19.633 -17.179  29.947  1.00  0.00    -0.000 C 
BRANCH  28  29
ATOM     29  C   UNL     1     -18.599 -17.313  28.817  1.00  0.00    -0.000 C 
BRANCH  29  30
ATOM     30  C   UNL     1     -18.724 -16.204  27.763  1.00  0.00    -0.000 C 
BRANCH  30  31
ATOM     31  C   UNL     1     -17.341 -15.757  27.271  1.00  0.00    -0.003 C 
ATOM     32  C   UNL     1     -17.296 -15.680  25.748  1.00  0.00     0.004 C 
ENDBRANCH  30  31
ENDBRANCH  29  30
ENDBRANCH  28  29
ENDBRANCH  27  28
ENDBRANCH  26  27
ENDBRANCH  25  26
ENDBRANCH  24  25
ENDBRANCH  23  24
ENDBRANCH  22  23
ENDBRANCH  21  22
ENDBRANCH  20  21
ENDBRANCH  19  20
ENDBRANCH  18  19
ENDBRANCH   1  18
TORSDOF 28
ENDMDL
