MODEL 1
REMARK VINA RESULT:    -7.765      0.000      0.000
REMARK INTER + INTRA:         -12.596
REMARK INTER:                 -11.396
REMARK INTRA:                  -1.200
REMARK UNBOUND:                -1.200
REMARK SMILES O=c1c(O[C@@H]2O[C@H](CO)[C@H](O)[C@@H](O)[C@H]2O)c(-c2ccc(O)c(O)c2)oc2cc(O)cc(O)c12
REMARK SMILES IDX 4 1 3 2 16 3 25 4 2 5 26 6 1 7 33 8 27 9 31 10 28 11 30 12
REMARK SMILES IDX 17 13 18 14 19 15 20 16 24 17 22 18 21 19 23 21 32 23 29 25
REMARK SMILES IDX 5 27 14 28 6 29 12 30 7 31 10 32 15 33 13 35 8 37 9 38 11 40
REMARK H PARENT 21 20 23 22 32 24 29 26 15 34 13 36 9 39 11 41
REMARK Flexibility Score: inf
ROOT
ATOM      1  O   UNL     1      -5.875   5.935  12.416  1.00  0.00    -0.454 OA
ENDROOT
BRANCH   1   2
ATOM      2  C   UNL     1      -4.777   6.753  12.713  1.00  0.00     0.214 A 
ATOM      3  C   UNL     1      -4.141   6.719  13.970  1.00  0.00     0.180 A 
ATOM      4  O   UNL     1      -3.143   7.557  14.224  1.00  0.00    -0.452 OA
ATOM      5  C   UNL     1      -4.297   7.628  11.733  1.00  0.00     0.239 A 
ATOM      6  C   UNL     1      -2.681   8.433  13.339  1.00  0.00     0.146 A 
ATOM      7  O   UNL     1      -4.810   7.577  10.585  1.00  0.00    -0.285 OA
ATOM      8  C   UNL     1      -3.251   8.531  12.042  1.00  0.00     0.111 A 
ATOM      9  C   UNL     1      -1.607   9.247  13.706  1.00  0.00     0.094 A 
ATOM     10  C   UNL     1      -2.726   9.506  11.140  1.00  0.00     0.134 A 
ATOM     11  C   UNL     1      -1.069  10.159  12.802  1.00  0.00     0.123 A 
ATOM     12  C   UNL     1      -1.625  10.282  11.526  1.00  0.00     0.093 A 
BRANCH   3  13
ATOM     13  C   UNL     1      -4.527   5.759  15.027  1.00  0.00     0.025 A 
ATOM     14  C   UNL     1      -4.280   4.384  14.885  1.00  0.00     0.016 A 
ATOM     15  C   UNL     1      -4.661   3.491  15.890  1.00  0.00     0.051 A 
ATOM     16  C   UNL     1      -5.280   3.959  17.053  1.00  0.00     0.157 A 
ATOM     17  C   UNL     1      -5.126   6.231  16.206  1.00  0.00     0.062 A 
ATOM     18  C   UNL     1      -5.511   5.335  17.215  1.00  0.00     0.158 A 
BRANCH  16  19
ATOM     19  O   UNL     1      -5.656   3.044  18.036  1.00  0.00    -0.504 OA
ATOM     20  H   UNL     1      -5.117   2.207  18.225  1.00  0.00     0.293 HD
ENDBRANCH  16  19
BRANCH  18  21
ATOM     21  O   UNL     1      -6.122   5.809  18.375  1.00  0.00    -0.504 OA
ATOM     22  H   UNL     1      -5.855   5.469  19.292  1.00  0.00     0.293 HD
ENDBRANCH  18  21
ENDBRANCH   3  13
BRANCH  10  23
ATOM     23  O   UNL     1      -3.260   9.771   9.876  1.00  0.00    -0.507 OA
ATOM     24  H   UNL     1      -4.225   9.997   9.690  1.00  0.00     0.293 HD
ENDBRANCH  10  23
BRANCH  11  25
ATOM     25  O   UNL     1       0.015  10.947  13.183  1.00  0.00    -0.508 OA
ATOM     26  H   UNL     1       0.578  11.440  12.499  1.00  0.00     0.293 HD
ENDBRANCH  11  25
ENDBRANCH   1   2
BRANCH   1  27
ATOM     27  C   UNL     1      -7.218   6.275  12.764  1.00  0.00     0.339 C 
ATOM     28  C   UNL     1      -7.693   5.356  13.915  1.00  0.00     0.214 C 
ATOM     29  O   UNL     1      -7.235   7.627  13.182  1.00  0.00    -0.332 OA
ATOM     30  C   UNL     1      -9.087   5.779  14.441  1.00  0.00     0.180 C 
ATOM     31  C   UNL     1      -8.566   8.060  13.406  1.00  0.00     0.179 C 
ATOM     32  C   UNL     1      -9.184   7.315  14.620  1.00  0.00     0.177 C 
BRANCH  28  33
ATOM     33  O   UNL     1      -7.687   4.001  13.536  1.00  0.00    -0.384 OA
ATOM     34  H   UNL     1      -8.527   3.586  13.866  1.00  0.00     0.211 HD
ENDBRANCH  28  33
BRANCH  30  35
ATOM     35  O   UNL     1     -10.125   5.303  13.617  1.00  0.00    -0.387 OA
ATOM     36  H   UNL     1     -10.267   5.957  12.886  1.00  0.00     0.211 HD
ENDBRANCH  30  35
BRANCH  31  37
ATOM     37  C   UNL     1      -8.570   9.579  13.629  1.00  0.00     0.191 C 
BRANCH  37  38
ATOM     38  O   UNL     1      -9.876  10.082  13.536  1.00  0.00    -0.394 OA
ATOM     39  H   UNL     1     -10.046  10.592  14.371  1.00  0.00     0.210 HD
ENDBRANCH  37  38
ENDBRANCH  31  37
BRANCH  32  40
ATOM     40  O   UNL     1      -8.580   7.708  15.830  1.00  0.00    -0.387 OA
ATOM     41  H   UNL     1      -9.177   7.437  16.573  1.00  0.00     0.211 HD
ENDBRANCH  32  40
ENDBRANCH   1  27
TORSDOF 12
ENDMDL
MODEL 2
REMARK VINA RESULT:    -7.342      1.054      1.761
REMARK INTER + INTRA:         -11.975
REMARK INTER:                 -10.473
REMARK INTRA:                  -1.502
REMARK UNBOUND:                -1.200
REMARK SMILES O=c1c(O[C@@H]2O[C@H](CO)[C@H](O)[C@@H](O)[C@H]2O)c(-c2ccc(O)c(O)c2)oc2cc(O)cc(O)c12
REMARK SMILES IDX 4 1 3 2 16 3 25 4 2 5 26 6 1 7 33 8 27 9 31 10 28 11 30 12
REMARK SMILES IDX 17 13 18 14 19 15 20 16 24 17 22 18 21 19 23 21 32 23 29 25
REMARK SMILES IDX 5 27 14 28 6 29 12 30 7 31 10 32 15 33 13 35 8 37 9 38 11 40
REMARK H PARENT 21 20 23 22 32 24 29 26 15 34 13 36 9 39 11 41
REMARK Flexibility Score: inf
ROOT
ATOM      1  O   UNL     1      -5.721   6.363  12.518  1.00  0.00    -0.454 OA
ENDROOT
BRANCH   1   2
ATOM      2  C   UNL     1      -4.552   7.064  12.842  1.00  0.00     0.214 A 
ATOM      3  C   UNL     1      -3.906   6.902  14.084  1.00  0.00     0.180 A 
ATOM      4  O   UNL     1      -2.835   7.633  14.367  1.00  0.00    -0.452 OA
ATOM      5  C   UNL     1      -4.009   7.949  11.905  1.00  0.00     0.239 A 
ATOM      6  C   UNL     1      -2.309   8.516  13.526  1.00  0.00     0.146 A 
ATOM      7  O   UNL     1      -4.538   8.009  10.765  1.00  0.00    -0.285 OA
ATOM      8  C   UNL     1      -2.883   8.737  12.246  1.00  0.00     0.111 A 
ATOM      9  C   UNL     1      -1.163   9.210  13.920  1.00  0.00     0.094 A 
ATOM     10  C   UNL     1      -2.285   9.714  11.393  1.00  0.00     0.134 A 
ATOM     11  C   UNL     1      -0.558  10.122  13.060  1.00  0.00     0.123 A 
ATOM     12  C   UNL     1      -1.116  10.366  11.802  1.00  0.00     0.093 A 
BRANCH   3  13
ATOM     13  C   UNL     1      -4.363   5.920  15.092  1.00  0.00     0.025 A 
ATOM     14  C   UNL     1      -4.164   4.542  14.906  1.00  0.00     0.016 A 
ATOM     15  C   UNL     1      -4.611   3.629  15.864  1.00  0.00     0.051 A 
ATOM     16  C   UNL     1      -5.249   4.078  17.024  1.00  0.00     0.157 A 
ATOM     17  C   UNL     1      -4.981   6.371  16.268  1.00  0.00     0.062 A 
ATOM     18  C   UNL     1      -5.433   5.455  17.231  1.00  0.00     0.158 A 
BRANCH  16  19
ATOM     19  O   UNL     1      -5.691   3.142  17.959  1.00  0.00    -0.504 OA
ATOM     20  H   UNL     1      -6.343   3.385  18.695  1.00  0.00     0.293 HD
ENDBRANCH  16  19
BRANCH  18  21
ATOM     21  O   UNL     1      -6.063   5.910  18.388  1.00  0.00    -0.504 OA
ATOM     22  H   UNL     1      -5.574   6.479  19.069  1.00  0.00     0.293 HD
ENDBRANCH  18  21
ENDBRANCH   3  13
BRANCH  10  23
ATOM     23  O   UNL     1      -2.809  10.097  10.154  1.00  0.00    -0.507 OA
ATOM     24  H   UNL     1      -3.030  11.044   9.887  1.00  0.00     0.293 HD
ENDBRANCH  10  23
BRANCH  11  25
ATOM     25  O   UNL     1       0.596  10.789  13.466  1.00  0.00    -0.508 OA
ATOM     26  H   UNL     1       1.490  10.623  13.018  1.00  0.00     0.293 HD
ENDBRANCH  11  25
ENDBRANCH   1   2
BRANCH   1  27
ATOM     27  C   UNL     1      -7.032   6.877  12.762  1.00  0.00     0.339 C 
ATOM     28  C   UNL     1      -7.991   6.374  11.657  1.00  0.00     0.214 C 
ATOM     29  O   UNL     1      -7.458   6.409  14.028  1.00  0.00    -0.332 OA
ATOM     30  C   UNL     1      -9.458   6.770  11.954  1.00  0.00     0.180 C 
ATOM     31  C   UNL     1      -8.695   7.001  14.385  1.00  0.00     0.179 C 
ATOM     32  C   UNL     1      -9.825   6.516  13.438  1.00  0.00     0.177 C 
BRANCH  28  33
ATOM     33  O   UNL     1      -7.596   6.818  10.382  1.00  0.00    -0.384 OA
ATOM     34  H   UNL     1      -8.067   6.266   9.705  1.00  0.00     0.211 HD
ENDBRANCH  28  33
BRANCH  30  35
ATOM     35  O   UNL     1      -9.723   8.105  11.592  1.00  0.00    -0.387 OA
ATOM     36  H   UNL     1      -8.859   8.556  11.413  1.00  0.00     0.211 HD
ENDBRANCH  30  35
BRANCH  31  37
ATOM     37  C   UNL     1      -9.013   6.659  15.848  1.00  0.00     0.191 C 
BRANCH  37  38
ATOM     38  O   UNL     1      -8.152   7.354  16.710  1.00  0.00    -0.394 OA
ATOM     39  H   UNL     1      -7.384   7.660  16.159  1.00  0.00     0.210 HD
ENDBRANCH  37  38
ENDBRANCH  31  37
BRANCH  32  40
ATOM     40  O   UNL     1     -10.124   5.156  13.645  1.00  0.00    -0.387 OA
ATOM     41  H   UNL     1     -11.106   5.041  13.559  1.00  0.00     0.211 HD
ENDBRANCH  32  40
ENDBRANCH   1  27
TORSDOF 12
ENDMDL
MODEL 3
REMARK VINA RESULT:    -7.101      1.806      5.849
REMARK INTER + INTRA:         -11.622
REMARK INTER:                 -10.026
REMARK INTRA:                  -1.596
REMARK UNBOUND:                -1.200
REMARK SMILES O=c1c(O[C@@H]2O[C@H](CO)[C@H](O)[C@@H](O)[C@H]2O)c(-c2ccc(O)c(O)c2)oc2cc(O)cc(O)c12
REMARK SMILES IDX 4 1 3 2 16 3 25 4 2 5 26 6 1 7 33 8 27 9 31 10 28 11 30 12
REMARK SMILES IDX 17 13 18 14 19 15 20 16 24 17 22 18 21 19 23 21 32 23 29 25
REMARK SMILES IDX 5 27 14 28 6 29 12 30 7 31 10 32 15 33 13 35 8 37 9 38 11 40
REMARK H PARENT 21 20 23 22 32 24 29 26 15 34 13 36 9 39 11 41
REMARK Flexibility Score: inf
ROOT
ATOM      1  O   UNL     1      -6.113   7.148  14.491  1.00  0.00    -0.454 OA
ENDROOT
BRANCH   1   2
ATOM      2  C   UNL     1      -5.029   6.340  14.857  1.00  0.00     0.214 A 
ATOM      3  C   UNL     1      -3.724   6.585  14.385  1.00  0.00     0.180 A 
ATOM      4  O   UNL     1      -2.741   5.756  14.711  1.00  0.00    -0.452 OA
ATOM      5  C   UNL     1      -5.247   5.259  15.717  1.00  0.00     0.239 A 
ATOM      6  C   UNL     1      -2.909   4.693  15.491  1.00  0.00     0.146 A 
ATOM      7  O   UNL     1      -6.395   5.111  16.210  1.00  0.00    -0.285 OA
ATOM      8  C   UNL     1      -4.185   4.374  16.024  1.00  0.00     0.111 A 
ATOM      9  C   UNL     1      -1.796   3.905  15.791  1.00  0.00     0.094 A 
ATOM     10  C   UNL     1      -4.309   3.207  16.839  1.00  0.00     0.134 A 
ATOM     11  C   UNL     1      -1.917   2.800  16.629  1.00  0.00     0.123 A 
ATOM     12  C   UNL     1      -3.167   2.459  17.151  1.00  0.00     0.093 A 
BRANCH   3  13
ATOM     13  C   UNL     1      -3.392   7.759  13.548  1.00  0.00     0.025 A 
ATOM     14  C   UNL     1      -2.615   8.815  14.052  1.00  0.00     0.016 A 
ATOM     15  C   UNL     1      -2.321   9.920  13.250  1.00  0.00     0.051 A 
ATOM     16  C   UNL     1      -2.785   9.981  11.933  1.00  0.00     0.157 A 
ATOM     17  C   UNL     1      -3.837   7.809  12.218  1.00  0.00     0.062 A 
ATOM     18  C   UNL     1      -3.544   8.920  11.411  1.00  0.00     0.158 A 
BRANCH  16  19
ATOM     19  O   UNL     1      -2.482  11.100  11.158  1.00  0.00    -0.504 OA
ATOM     20  H   UNL     1      -2.307  12.008  11.571  1.00  0.00     0.293 HD
ENDBRANCH  16  19
BRANCH  18  21
ATOM     21  O   UNL     1      -4.005   8.971  10.096  1.00  0.00    -0.504 OA
ATOM     22  H   UNL     1      -4.104   8.132   9.536  1.00  0.00     0.293 HD
ENDBRANCH  18  21
ENDBRANCH   3  13
BRANCH  10  23
ATOM     23  O   UNL     1      -5.523   2.728  17.341  1.00  0.00    -0.507 OA
ATOM     24  H   UNL     1      -6.110   3.216  17.999  1.00  0.00     0.293 HD
ENDBRANCH  10  23
BRANCH  11  25
ATOM     25  O   UNL     1      -0.790   2.038  16.930  1.00  0.00    -0.508 OA
ATOM     26  H   UNL     1      -0.482   1.285  16.326  1.00  0.00     0.293 HD
ENDBRANCH  11  25
ENDBRANCH   1   2
BRANCH   1  27
ATOM     27  C   UNL     1      -7.204   6.677  13.698  1.00  0.00     0.339 C 
ATOM     28  C   UNL     1      -8.536   7.120  14.350  1.00  0.00     0.214 C 
ATOM     29  O   UNL     1      -7.083   7.241  12.405  1.00  0.00    -0.332 OA
ATOM     30  C   UNL     1      -9.750   6.773  13.453  1.00  0.00     0.180 C 
ATOM     31  C   UNL     1      -8.060   6.698  11.534  1.00  0.00     0.179 C 
ATOM     32  C   UNL     1      -9.483   7.137  11.970  1.00  0.00     0.177 C 
BRANCH  28  33
ATOM     33  O   UNL     1      -8.691   6.580  15.639  1.00  0.00    -0.384 OA
ATOM     34  H   UNL     1      -7.786   6.442  16.025  1.00  0.00     0.211 HD
ENDBRANCH  28  33
BRANCH  30  35
ATOM     35  O   UNL     1     -10.125   5.421  13.579  1.00  0.00    -0.387 OA
ATOM     36  H   UNL     1      -9.936   5.132  14.508  1.00  0.00     0.211 HD
ENDBRANCH  30  35
BRANCH  31  37
ATOM     37  C   UNL     1      -7.758   7.148  10.097  1.00  0.00     0.191 C 
BRANCH  37  38
ATOM     38  O   UNL     1      -7.068   8.370  10.104  1.00  0.00    -0.394 OA
ATOM     39  H   UNL     1      -6.702   8.486  11.020  1.00  0.00     0.210 HD
ENDBRANCH  37  38
ENDBRANCH  31  37
BRANCH  32  40
ATOM     40  O   UNL     1      -9.688   8.514  11.758  1.00  0.00    -0.387 OA
ATOM     41  H   UNL     1     -10.661   8.693  11.819  1.00  0.00     0.211 HD
ENDBRANCH  32  40
ENDBRANCH   1  27
TORSDOF 12
ENDMDL
MODEL 4
REMARK VINA RESULT:    -6.440      2.099      6.420
REMARK INTER + INTRA:         -10.651
REMARK INTER:                  -8.911
REMARK INTRA:                  -1.740
REMARK UNBOUND:                -1.200
REMARK SMILES O=c1c(O[C@@H]2O[C@H](CO)[C@H](O)[C@@H](O)[C@H]2O)c(-c2ccc(O)c(O)c2)oc2cc(O)cc(O)c12
REMARK SMILES IDX 4 1 3 2 16 3 25 4 2 5 26 6 1 7 33 8 27 9 31 10 28 11 30 12
REMARK SMILES IDX 17 13 18 14 19 15 20 16 24 17 22 18 21 19 23 21 32 23 29 25
REMARK SMILES IDX 5 27 14 28 6 29 12 30 7 31 10 32 15 33 13 35 8 37 9 38 11 40
REMARK H PARENT 21 20 23 22 32 24 29 26 15 34 13 36 9 39 11 41
REMARK Flexibility Score: inf
ROOT
ATOM      1  O   UNL     1      -4.017   6.611  13.744  1.00  0.00    -0.454 OA
ENDROOT
BRANCH   1   2
ATOM      2  C   UNL     1      -4.301   5.565  14.632  1.00  0.00     0.214 A 
ATOM      3  C   UNL     1      -5.623   5.181  14.933  1.00  0.00     0.180 A 
ATOM      4  O   UNL     1      -5.841   4.225  15.827  1.00  0.00    -0.452 OA
ATOM      5  C   UNL     1      -3.241   4.881  15.235  1.00  0.00     0.239 A 
ATOM      6  C   UNL     1      -4.868   3.576  16.456  1.00  0.00     0.146 A 
ATOM      7  O   UNL     1      -2.068   5.167  14.881  1.00  0.00    -0.285 OA
ATOM      8  C   UNL     1      -3.504   3.885  16.207  1.00  0.00     0.111 A 
ATOM      9  C   UNL     1      -5.214   2.567  17.358  1.00  0.00     0.094 A 
ATOM     10  C   UNL     1      -2.502   3.168  16.929  1.00  0.00     0.134 A 
ATOM     11  C   UNL     1      -4.228   1.839  18.017  1.00  0.00     0.123 A 
ATOM     12  C   UNL     1      -2.880   2.138  17.798  1.00  0.00     0.093 A 
BRANCH   3  13
ATOM     13  C   UNL     1      -6.796   5.791  14.269  1.00  0.00     0.025 A 
ATOM     14  C   UNL     1      -7.017   5.629  12.891  1.00  0.00     0.016 A 
ATOM     15  C   UNL     1      -8.124   6.221  12.280  1.00  0.00     0.051 A 
ATOM     16  C   UNL     1      -9.032   6.970  13.035  1.00  0.00     0.157 A 
ATOM     17  C   UNL     1      -7.721   6.521  15.031  1.00  0.00     0.062 A 
ATOM     18  C   UNL     1      -8.833   7.119  14.418  1.00  0.00     0.158 A 
BRANCH  16  19
ATOM     19  O   UNL     1     -10.125   7.555  12.396  1.00  0.00    -0.504 OA
ATOM     20  H   UNL     1     -10.968   7.809  12.897  1.00  0.00     0.293 HD
ENDBRANCH  16  19
BRANCH  18  21
ATOM     21  O   UNL     1      -9.738   7.858  15.178  1.00  0.00    -0.504 OA
ATOM     22  H   UNL     1      -9.430   8.591  15.806  1.00  0.00     0.293 HD
ENDBRANCH  18  21
ENDBRANCH   3  13
BRANCH  10  23
ATOM     23  O   UNL     1      -1.133   3.443  16.850  1.00  0.00    -0.507 OA
ATOM     24  H   UNL     1      -0.564   3.771  17.615  1.00  0.00     0.293 HD
ENDBRANCH  10  23
BRANCH  11  25
ATOM     25  O   UNL     1      -4.595   0.823  18.898  1.00  0.00    -0.508 OA
ATOM     26  H   UNL     1      -4.523  -0.154  18.639  1.00  0.00     0.293 HD
ENDBRANCH  11  25
ENDBRANCH   1   2
BRANCH   1  27
ATOM     27  C   UNL     1      -3.995   7.984  14.137  1.00  0.00     0.339 C 
ATOM     28  C   UNL     1      -2.812   8.695  13.438  1.00  0.00     0.214 C 
ATOM     29  O   UNL     1      -5.220   8.574  13.742  1.00  0.00    -0.332 OA
ATOM     30  C   UNL     1      -2.829  10.221  13.704  1.00  0.00     0.180 C 
ATOM     31  C   UNL     1      -5.312   9.901  14.232  1.00  0.00     0.179 C 
ATOM     32  C   UNL     1      -4.255  10.808  13.548  1.00  0.00     0.177 C 
BRANCH  28  33
ATOM     33  O   UNL     1      -1.576   8.133  13.805  1.00  0.00    -0.384 OA
ATOM     34  H   UNL     1      -1.348   7.432  13.140  1.00  0.00     0.211 HD
ENDBRANCH  28  33
BRANCH  30  35
ATOM     35  O   UNL     1      -2.290  10.539  14.965  1.00  0.00    -0.387 OA
ATOM     36  H   UNL     1      -2.482   9.789  15.584  1.00  0.00     0.211 HD
ENDBRANCH  30  35
BRANCH  31  37
ATOM     37  C   UNL     1      -6.733  10.429  13.991  1.00  0.00     0.191 C 
BRANCH  37  38
ATOM     38  O   UNL     1      -7.229   9.954  12.768  1.00  0.00    -0.394 OA
ATOM     39  H   UNL     1      -7.500   9.010  12.917  1.00  0.00     0.210 HD
ENDBRANCH  37  38
ENDBRANCH  31  37
BRANCH  32  40
ATOM     40  O   UNL     1      -4.555  11.017  12.188  1.00  0.00    -0.387 OA
ATOM     41  H   UNL     1      -5.054  11.870  12.111  1.00  0.00     0.211 HD
ENDBRANCH  32  40
ENDBRANCH   1  27
TORSDOF 12
ENDMDL
MODEL 5
REMARK VINA RESULT:    -6.384      1.719      6.108
REMARK INTER + INTRA:         -10.569
REMARK INTER:                  -9.773
REMARK INTRA:                  -0.796
REMARK UNBOUND:                -1.200
REMARK SMILES O=c1c(O[C@@H]2O[C@H](CO)[C@H](O)[C@@H](O)[C@H]2O)c(-c2ccc(O)c(O)c2)oc2cc(O)cc(O)c12
REMARK SMILES IDX 4 1 3 2 16 3 25 4 2 5 26 6 1 7 33 8 27 9 31 10 28 11 30 12
REMARK SMILES IDX 17 13 18 14 19 15 20 16 24 17 22 18 21 19 23 21 32 23 29 25
REMARK SMILES IDX 5 27 14 28 6 29 12 30 7 31 10 32 15 33 13 35 8 37 9 38 11 40
REMARK H PARENT 21 20 23 22 32 24 29 26 15 34 13 36 9 39 11 41
REMARK Flexibility Score: inf
ROOT
ATOM      1  O   UNL     1      -5.549   8.203  14.529  1.00  0.00    -0.454 OA
ENDROOT
BRANCH   1   2
ATOM      2  C   UNL     1      -4.629   7.186  14.815  1.00  0.00     0.214 A 
ATOM      3  C   UNL     1      -3.371   7.119  14.184  1.00  0.00     0.180 A 
ATOM      4  O   UNL     1      -2.559   6.102  14.444  1.00  0.00    -0.452 OA
ATOM      5  C   UNL     1      -4.969   6.208  15.756  1.00  0.00     0.239 A 
ATOM      6  C   UNL     1      -2.856   5.128  15.298  1.00  0.00     0.146 A 
ATOM      7  O   UNL     1      -6.052   6.335  16.384  1.00  0.00    -0.285 OA
ATOM      8  C   UNL     1      -4.096   5.118  15.990  1.00  0.00     0.111 A 
ATOM      9  C   UNL     1      -1.913   4.122  15.514  1.00  0.00     0.094 A 
ATOM     10  C   UNL     1      -4.368   4.035  16.880  1.00  0.00     0.134 A 
ATOM     11  C   UNL     1      -2.167   3.098  16.423  1.00  0.00     0.123 A 
ATOM     12  C   UNL     1      -3.387   3.061  17.103  1.00  0.00     0.093 A 
BRANCH   3  13
ATOM     13  C   UNL     1      -2.898   8.163  13.248  1.00  0.00     0.025 A 
ATOM     14  C   UNL     1      -3.426   8.269  11.951  1.00  0.00     0.016 A 
ATOM     15  C   UNL     1      -2.960   9.254  11.077  1.00  0.00     0.051 A 
ATOM     16  C   UNL     1      -1.972  10.154  11.490  1.00  0.00     0.157 A 
ATOM     17  C   UNL     1      -1.925   9.081  13.669  1.00  0.00     0.062 A 
ATOM     18  C   UNL     1      -1.453  10.071  12.793  1.00  0.00     0.158 A 
BRANCH  16  19
ATOM     19  O   UNL     1      -1.521  11.123  10.594  1.00  0.00    -0.504 OA
ATOM     20  H   UNL     1      -0.546  11.392  10.539  1.00  0.00     0.293 HD
ENDBRANCH  16  19
BRANCH  18  21
ATOM     21  O   UNL     1      -0.473  10.969  13.212  1.00  0.00    -0.504 OA
ATOM     22  H   UNL     1      -0.269  11.110  14.195  1.00  0.00     0.293 HD
ENDBRANCH  18  21
ENDBRANCH   3  13
BRANCH  10  23
ATOM     23  O   UNL     1      -5.585   3.854  17.544  1.00  0.00    -0.507 OA
ATOM     24  H   UNL     1      -6.495   4.014  17.140  1.00  0.00     0.293 HD
ENDBRANCH  10  23
BRANCH  11  25
ATOM     25  O   UNL     1      -1.204   2.114  16.638  1.00  0.00    -0.508 OA
ATOM     26  H   UNL     1      -1.023   1.390  15.952  1.00  0.00     0.293 HD
ENDBRANCH  11  25
ENDBRANCH   1   2
BRANCH   1  27
ATOM     27  C   UNL     1      -6.827   7.957  13.941  1.00  0.00     0.339 C 
ATOM     28  C   UNL     1      -7.165   9.104  12.959  1.00  0.00     0.214 C 
ATOM     29  O   UNL     1      -6.761   6.725  13.247  1.00  0.00    -0.332 OA
ATOM     30  C   UNL     1      -8.468   8.814  12.174  1.00  0.00     0.180 C 
ATOM     31  C   UNL     1      -8.041   6.361  12.760  1.00  0.00     0.179 C 
ATOM     32  C   UNL     1      -8.509   7.352  11.661  1.00  0.00     0.177 C 
BRANCH  28  33
ATOM     33  O   UNL     1      -7.236  10.347  13.614  1.00  0.00    -0.384 OA
ATOM     34  H   UNL     1      -8.168  10.472  13.935  1.00  0.00     0.211 HD
ENDBRANCH  28  33
BRANCH  30  35
ATOM     35  O   UNL     1      -9.615   9.112  12.934  1.00  0.00    -0.387 OA
ATOM     36  H   UNL     1     -10.063   8.260  13.169  1.00  0.00     0.211 HD
ENDBRANCH  30  35
BRANCH  31  37
ATOM     37  C   UNL     1      -7.985   4.924  12.222  1.00  0.00     0.191 C 
BRANCH  37  38
ATOM     38  O   UNL     1      -8.232   4.006  13.254  1.00  0.00    -0.394 OA
ATOM     39  H   UNL     1      -9.152   3.659  13.113  1.00  0.00     0.210 HD
ENDBRANCH  37  38
ENDBRANCH  31  37
BRANCH  32  40
ATOM     40  O   UNL     1      -7.742   7.221  10.487  1.00  0.00    -0.387 OA
ATOM     41  H   UNL     1      -8.365   7.191   9.716  1.00  0.00     0.211 HD
ENDBRANCH  32  40
ENDBRANCH   1  27
TORSDOF 12
ENDMDL
MODEL 6
REMARK VINA RESULT:    -6.305      2.089      5.103
REMARK INTER + INTRA:         -10.453
REMARK INTER:                  -9.296
REMARK INTRA:                  -1.157
REMARK UNBOUND:                -1.200
REMARK SMILES O=c1c(O[C@@H]2O[C@H](CO)[C@H](O)[C@@H](O)[C@H]2O)c(-c2ccc(O)c(O)c2)oc2cc(O)cc(O)c12
REMARK SMILES IDX 4 1 3 2 16 3 25 4 2 5 26 6 1 7 33 8 27 9 31 10 28 11 30 12
REMARK SMILES IDX 17 13 18 14 19 15 20 16 24 17 22 18 21 19 23 21 32 23 29 25
REMARK SMILES IDX 5 27 14 28 6 29 12 30 7 31 10 32 15 33 13 35 8 37 9 38 11 40
REMARK H PARENT 21 20 23 22 32 24 29 26 15 34 13 36 9 39 11 41
REMARK Flexibility Score: inf
ROOT
ATOM      1  O   UNL     1      -5.761   8.197  14.371  1.00  0.00    -0.454 OA
ENDROOT
BRANCH   1   2
ATOM      2  C   UNL     1      -4.826   8.677  13.445  1.00  0.00     0.214 A 
ATOM      3  C   UNL     1      -4.950   8.429  12.063  1.00  0.00     0.180 A 
ATOM      4  O   UNL     1      -4.007   8.853  11.232  1.00  0.00    -0.452 OA
ATOM      5  C   UNL     1      -3.738   9.427  13.904  1.00  0.00     0.239 A 
ATOM      6  C   UNL     1      -2.936   9.532  11.628  1.00  0.00     0.146 A 
ATOM      7  O   UNL     1      -3.693   9.725  15.126  1.00  0.00    -0.285 OA
ATOM      8  C   UNL     1      -2.732   9.841  12.999  1.00  0.00     0.111 A 
ATOM      9  C   UNL     1      -2.020   9.954  10.661  1.00  0.00     0.094 A 
ATOM     10  C   UNL     1      -1.551  10.555  13.366  1.00  0.00     0.134 A 
ATOM     11  C   UNL     1      -0.899  10.695  11.024  1.00  0.00     0.123 A 
ATOM     12  C   UNL     1      -0.672  10.996  12.370  1.00  0.00     0.093 A 
BRANCH   3  13
ATOM     13  C   UNL     1      -6.117   7.725  11.487  1.00  0.00     0.025 A 
ATOM     14  C   UNL     1      -7.199   8.437  10.941  1.00  0.00     0.016 A 
ATOM     15  C   UNL     1      -8.296   7.755  10.411  1.00  0.00     0.051 A 
ATOM     16  C   UNL     1      -8.325   6.357  10.406  1.00  0.00     0.157 A 
ATOM     17  C   UNL     1      -6.136   6.322  11.459  1.00  0.00     0.062 A 
ATOM     18  C   UNL     1      -7.239   5.635  10.928  1.00  0.00     0.158 A 
BRANCH  16  19
ATOM     19  O   UNL     1      -9.437   5.704   9.876  1.00  0.00    -0.504 OA
ATOM     20  H   UNL     1     -10.135   6.191   9.326  1.00  0.00     0.293 HD
ENDBRANCH  16  19
BRANCH  18  21
ATOM     21  O   UNL     1      -7.258   4.242  10.921  1.00  0.00    -0.504 OA
ATOM     22  H   UNL     1      -6.588   3.699  11.452  1.00  0.00     0.293 HD
ENDBRANCH  18  21
ENDBRANCH   3  13
BRANCH  10  23
ATOM     23  O   UNL     1      -1.183  10.834  14.686  1.00  0.00    -0.507 OA
ATOM     24  H   UNL     1      -0.436  10.379  15.188  1.00  0.00     0.293 HD
ENDBRANCH  10  23
BRANCH  11  25
ATOM     25  O   UNL     1      -0.009  11.122  10.041  1.00  0.00    -0.508 OA
ATOM     26  H   UNL     1      -0.149  11.992   9.541  1.00  0.00     0.293 HD
ENDBRANCH  11  25
ENDBRANCH   1   2
BRANCH   1  27
ATOM     27  C   UNL     1      -5.416   7.316  15.442  1.00  0.00     0.339 C 
ATOM     28  C   UNL     1      -6.703   6.654  15.992  1.00  0.00     0.214 C 
ATOM     29  O   UNL     1      -4.539   6.328  14.933  1.00  0.00    -0.332 OA
ATOM     30  C   UNL     1      -6.377   5.572  17.050  1.00  0.00     0.180 C 
ATOM     31  C   UNL     1      -4.053   5.509  15.983  1.00  0.00     0.179 C 
ATOM     32  C   UNL     1      -5.205   4.667  16.595  1.00  0.00     0.177 C 
BRANCH  28  33
ATOM     33  O   UNL     1      -7.601   7.608  16.504  1.00  0.00    -0.384 OA
ATOM     34  H   UNL     1      -8.114   7.987  15.743  1.00  0.00     0.211 HD
ENDBRANCH  28  33
BRANCH  30  35
ATOM     35  O   UNL     1      -6.115   6.137  18.313  1.00  0.00    -0.387 OA
ATOM     36  H   UNL     1      -6.399   7.086  18.294  1.00  0.00     0.211 HD
ENDBRANCH  30  35
BRANCH  31  37
ATOM     37  C   UNL     1      -2.936   4.606  15.440  1.00  0.00     0.191 C 
BRANCH  37  38
ATOM     38  O   UNL     1      -3.358   3.959  14.269  1.00  0.00    -0.394 OA
ATOM     39  H   UNL     1      -4.196   4.407  13.981  1.00  0.00     0.210 HD
ENDBRANCH  37  38
ENDBRANCH  31  37
BRANCH  32  40
ATOM     40  O   UNL     1      -5.662   3.685  15.695  1.00  0.00    -0.387 OA
ATOM     41  H   UNL     1      -5.581   4.049  14.776  1.00  0.00     0.211 HD
ENDBRANCH  32  40
ENDBRANCH   1  27
TORSDOF 12
ENDMDL
MODEL 7
REMARK VINA RESULT:    -5.959      2.539      5.179
REMARK INTER + INTRA:          -9.945
REMARK INTER:                  -9.817
REMARK INTRA:                  -0.128
REMARK UNBOUND:                -1.200
REMARK SMILES O=c1c(O[C@@H]2O[C@H](CO)[C@H](O)[C@@H](O)[C@H]2O)c(-c2ccc(O)c(O)c2)oc2cc(O)cc(O)c12
REMARK SMILES IDX 4 1 3 2 16 3 25 4 2 5 26 6 1 7 33 8 27 9 31 10 28 11 30 12
REMARK SMILES IDX 17 13 18 14 19 15 20 16 24 17 22 18 21 19 23 21 32 23 29 25
REMARK SMILES IDX 5 27 14 28 6 29 12 30 7 31 10 32 15 33 13 35 8 37 9 38 11 40
REMARK H PARENT 21 20 23 22 32 24 29 26 15 34 13 36 9 39 11 41
REMARK Flexibility Score: inf
ROOT
ATOM      1  O   UNL     1      -6.538   4.443  13.920  1.00  0.00    -0.454 OA
ENDROOT
BRANCH   1   2
ATOM      2  C   UNL     1      -5.250   4.807  14.332  1.00  0.00     0.214 A 
ATOM      3  C   UNL     1      -4.570   5.907  13.771  1.00  0.00     0.180 A 
ATOM      4  O   UNL     1      -3.328   6.175  14.153  1.00  0.00    -0.452 OA
ATOM      5  C   UNL     1      -4.620   4.059  15.332  1.00  0.00     0.239 A 
ATOM      6  C   UNL     1      -2.675   5.467  15.068  1.00  0.00     0.146 A 
ATOM      7  O   UNL     1      -5.275   3.143  15.894  1.00  0.00    -0.285 OA
ATOM      8  C   UNL     1      -3.284   4.350  15.697  1.00  0.00     0.111 A 
ATOM      9  C   UNL     1      -1.379   5.858  15.411  1.00  0.00     0.094 A 
ATOM     10  C   UNL     1      -2.525   3.615  16.658  1.00  0.00     0.134 A 
ATOM     11  C   UNL     1      -0.667   5.166  16.387  1.00  0.00     0.123 A 
ATOM     12  C   UNL     1      -1.242   4.054  17.008  1.00  0.00     0.093 A 
BRANCH   3  13
ATOM     13  C   UNL     1      -5.200   6.804  12.777  1.00  0.00     0.025 A 
ATOM     14  C   UNL     1      -5.494   6.356  11.478  1.00  0.00     0.016 A 
ATOM     15  C   UNL     1      -6.080   7.221  10.550  1.00  0.00     0.051 A 
ATOM     16  C   UNL     1      -6.391   8.536  10.908  1.00  0.00     0.157 A 
ATOM     17  C   UNL     1      -5.536   8.116  13.143  1.00  0.00     0.062 A 
ATOM     18  C   UNL     1      -6.122   8.987  12.211  1.00  0.00     0.158 A 
BRANCH  16  19
ATOM     19  O   UNL     1      -6.969   9.378   9.958  1.00  0.00    -0.504 OA
ATOM     20  H   UNL     1      -7.945   9.644   9.998  1.00  0.00     0.293 HD
ENDBRANCH  16  19
BRANCH  18  21
ATOM     21  O   UNL     1      -6.436  10.295  12.577  1.00  0.00    -0.504 OA
ATOM     22  H   UNL     1      -7.395  10.591  12.716  1.00  0.00     0.293 HD
ENDBRANCH  18  21
ENDBRANCH   3  13
BRANCH  10  23
ATOM     23  O   UNL     1      -2.969   2.441  17.275  1.00  0.00    -0.507 OA
ATOM     24  H   UNL     1      -3.735   1.871  16.951  1.00  0.00     0.293 HD
ENDBRANCH  10  23
BRANCH  11  25
ATOM     25  O   UNL     1       0.617   5.585  16.729  1.00  0.00    -0.508 OA
ATOM     26  H   UNL     1       0.803   6.537  17.023  1.00  0.00     0.293 HD
ENDBRANCH  11  25
ENDBRANCH   1   2
BRANCH   1  27
ATOM     27  C   UNL     1      -7.716   5.135  14.338  1.00  0.00     0.339 C 
ATOM     28  C   UNL     1      -7.350   6.129  15.465  1.00  0.00     0.214 C 
ATOM     29  O   UNL     1      -8.235   5.834  13.221  1.00  0.00    -0.332 OA
ATOM     30  C   UNL     1      -8.556   7.019  15.852  1.00  0.00     0.180 C 
ATOM     31  C   UNL     1      -9.482   6.425  13.543  1.00  0.00     0.179 C 
ATOM     32  C   UNL     1      -9.297   7.548  14.598  1.00  0.00     0.177 C 
BRANCH  28  33
ATOM     33  O   UNL     1      -6.827   5.470  16.593  1.00  0.00    -0.384 OA
ATOM     34  H   UNL     1      -6.417   4.618  16.288  1.00  0.00     0.211 HD
ENDBRANCH  28  33
BRANCH  30  35
ATOM     35  O   UNL     1      -9.445   6.350  16.716  1.00  0.00    -0.387 OA
ATOM     36  H   UNL     1      -8.943   5.637  17.187  1.00  0.00     0.211 HD
ENDBRANCH  30  35
BRANCH  31  37
ATOM     37  C   UNL     1     -10.125   6.972  12.260  1.00  0.00     0.191 C 
BRANCH  37  38
ATOM     38  O   UNL     1      -9.500   6.423  11.130  1.00  0.00    -0.394 OA
ATOM     39  H   UNL     1      -9.261   7.185  10.538  1.00  0.00     0.210 HD
ENDBRANCH  37  38
ENDBRANCH  31  37
BRANCH  32  40
ATOM     40  O   UNL     1      -8.620   8.658  14.058  1.00  0.00    -0.387 OA
ATOM     41  H   UNL     1      -8.472   8.488  13.092  1.00  0.00     0.211 HD
ENDBRANCH  32  40
ENDBRANCH   1  27
TORSDOF 12
ENDMDL
MODEL 8
REMARK VINA RESULT:    -5.742     11.020     15.658
REMARK INTER + INTRA:          -9.626
REMARK INTER:                  -7.997
REMARK INTRA:                  -1.629
REMARK UNBOUND:                -1.200
REMARK SMILES O=c1c(O[C@@H]2O[C@H](CO)[C@H](O)[C@@H](O)[C@H]2O)c(-c2ccc(O)c(O)c2)oc2cc(O)cc(O)c12
REMARK SMILES IDX 4 1 3 2 16 3 25 4 2 5 26 6 1 7 33 8 27 9 31 10 28 11 30 12
REMARK SMILES IDX 17 13 18 14 19 15 20 16 24 17 22 18 21 19 23 21 32 23 29 25
REMARK SMILES IDX 5 27 14 28 6 29 12 30 7 31 10 32 15 33 13 35 8 37 9 38 11 40
REMARK H PARENT 21 20 23 22 32 24 29 26 15 34 13 36 9 39 11 41
REMARK Flexibility Score: inf
ROOT
ATOM      1  O   UNL     1      -8.133  -6.011  22.281  1.00  0.00    -0.454 OA
ENDROOT
BRANCH   1   2
ATOM      2  C   UNL     1      -7.598  -5.042  21.421  1.00  0.00     0.214 A 
ATOM      3  C   UNL     1      -6.209  -4.914  21.215  1.00  0.00     0.180 A 
ATOM      4  O   UNL     1      -5.749  -3.942  20.438  1.00  0.00    -0.452 OA
ATOM      5  C   UNL     1      -8.467  -4.179  20.746  1.00  0.00     0.239 A 
ATOM      6  C   UNL     1      -6.533  -3.073  19.810  1.00  0.00     0.146 A 
ATOM      7  O   UNL     1      -9.705  -4.370  20.861  1.00  0.00    -0.285 OA
ATOM      8  C   UNL     1      -7.945  -3.133  19.947  1.00  0.00     0.111 A 
ATOM      9  C   UNL     1      -5.939  -2.108  18.994  1.00  0.00     0.094 A 
ATOM     10  C   UNL     1      -8.736  -2.160  19.264  1.00  0.00     0.134 A 
ATOM     11  C   UNL     1      -6.722  -1.196  18.292  1.00  0.00     0.123 A 
ATOM     12  C   UNL     1      -8.113  -1.228  18.425  1.00  0.00     0.093 A 
BRANCH   3  13
ATOM     13  C   UNL     1      -5.230  -5.844  21.818  1.00  0.00     0.025 A 
ATOM     14  C   UNL     1      -4.748  -6.955  21.105  1.00  0.00     0.016 A 
ATOM     15  C   UNL     1      -3.831  -7.828  21.694  1.00  0.00     0.051 A 
ATOM     16  C   UNL     1      -3.373  -7.599  22.995  1.00  0.00     0.157 A 
ATOM     17  C   UNL     1      -4.750  -5.601  23.114  1.00  0.00     0.062 A 
ATOM     18  C   UNL     1      -3.831  -6.478  23.709  1.00  0.00     0.158 A 
BRANCH  16  19
ATOM     19  O   UNL     1      -2.462  -8.492  23.560  1.00  0.00    -0.504 OA
ATOM     20  H   UNL     1      -2.565  -9.495  23.466  1.00  0.00     0.293 HD
ENDBRANCH  16  19
BRANCH  18  21
ATOM     21  O   UNL     1      -3.373  -6.240  25.004  1.00  0.00    -0.504 OA
ATOM     22  H   UNL     1      -3.235  -5.299  25.353  1.00  0.00     0.293 HD
ENDBRANCH  18  21
ENDBRANCH   3  13
BRANCH  10  23
ATOM     23  O   UNL     1     -10.124  -2.048  19.394  1.00  0.00    -0.507 OA
ATOM     24  H   UNL     1     -10.798  -2.661  18.963  1.00  0.00     0.293 HD
ENDBRANCH  10  23
BRANCH  11  25
ATOM     25  O   UNL     1      -6.109  -0.254  17.468  1.00  0.00    -0.508 OA
ATOM     26  H   UNL     1      -6.080   0.728  17.717  1.00  0.00     0.293 HD
ENDBRANCH  11  25
ENDBRANCH   1   2
BRANCH   1  27
ATOM     27  C   UNL     1      -8.065  -5.912  23.705  1.00  0.00     0.339 C 
ATOM     28  C   UNL     1      -9.496  -5.762  24.273  1.00  0.00     0.214 C 
ATOM     29  O   UNL     1      -7.467  -7.096  24.199  1.00  0.00    -0.332 OA
ATOM     30  C   UNL     1      -9.500  -5.807  25.821  1.00  0.00     0.180 C 
ATOM     31  C   UNL     1      -7.246  -6.994  25.595  1.00  0.00     0.179 C 
ATOM     32  C   UNL     1      -8.596  -6.945  26.359  1.00  0.00     0.177 C 
BRANCH  28  33
ATOM     33  O   UNL     1     -10.125  -4.595  23.801  1.00  0.00    -0.384 OA
ATOM     34  H   UNL     1     -10.371  -4.039  24.586  1.00  0.00     0.211 HD
ENDBRANCH  28  33
BRANCH  30  35
ATOM     35  O   UNL     1      -9.135  -4.568  26.382  1.00  0.00    -0.387 OA
ATOM     36  H   UNL     1      -8.597  -4.071  25.715  1.00  0.00     0.211 HD
ENDBRANCH  30  35
BRANCH  31  37
ATOM     37  C   UNL     1      -6.392  -8.184  26.057  1.00  0.00     0.191 C 
BRANCH  37  38
ATOM     38  O   UNL     1      -5.270  -7.731  26.769  1.00  0.00    -0.394 OA
ATOM     39  H   UNL     1      -5.040  -8.443  27.422  1.00  0.00     0.210 HD
ENDBRANCH  37  38
ENDBRANCH  31  37
BRANCH  32  40
ATOM     40  O   UNL     1      -9.271  -8.180  26.296  1.00  0.00    -0.387 OA
ATOM     41  H   UNL     1     -10.218  -8.025  26.544  1.00  0.00     0.211 HD
ENDBRANCH  32  40
ENDBRANCH   1  27
TORSDOF 12
ENDMDL
MODEL 9
REMARK VINA RESULT:    -5.215      2.230      6.331
REMARK INTER + INTRA:          -8.853
REMARK INTER:                  -8.289
REMARK INTRA:                  -0.564
REMARK UNBOUND:                -1.200
REMARK SMILES O=c1c(O[C@@H]2O[C@H](CO)[C@H](O)[C@@H](O)[C@H]2O)c(-c2ccc(O)c(O)c2)oc2cc(O)cc(O)c12
REMARK SMILES IDX 4 1 3 2 16 3 25 4 2 5 26 6 1 7 33 8 27 9 31 10 28 11 30 12
REMARK SMILES IDX 17 13 18 14 19 15 20 16 24 17 22 18 21 19 23 21 32 23 29 25
REMARK SMILES IDX 5 27 14 28 6 29 12 30 7 31 10 32 15 33 13 35 8 37 9 38 11 40
REMARK H PARENT 21 20 23 22 32 24 29 26 15 34 13 36 9 39 11 41
REMARK Flexibility Score: inf
ROOT
ATOM      1  O   UNL     1      -4.355   6.409  13.103  1.00  0.00    -0.454 OA
ENDROOT
BRANCH   1   2
ATOM      2  C   UNL     1      -5.291   7.294  12.553  1.00  0.00     0.214 A 
ATOM      3  C   UNL     1      -5.153   8.692  12.667  1.00  0.00     0.180 A 
ATOM      4  O   UNL     1      -6.098   9.487  12.181  1.00  0.00    -0.452 OA
ATOM      5  C   UNL     1      -6.394   6.775  11.867  1.00  0.00     0.239 A 
ATOM      6  C   UNL     1      -7.183   9.038  11.560  1.00  0.00     0.146 A 
ATOM      7  O   UNL     1      -6.453   5.531  11.686  1.00  0.00    -0.285 OA
ATOM      8  C   UNL     1      -7.401   7.646  11.386  1.00  0.00     0.111 A 
ATOM      9  C   UNL     1      -8.099   9.969  11.064  1.00  0.00     0.094 A 
ATOM     10  C   UNL     1      -8.596   7.223  10.728  1.00  0.00     0.134 A 
ATOM     11  C   UNL     1      -9.235   9.547  10.379  1.00  0.00     0.123 A 
ATOM     12  C   UNL     1      -9.476   8.181  10.210  1.00  0.00     0.093 A 
BRANCH   3  13
ATOM     13  C   UNL     1      -3.970   9.322  13.294  1.00  0.00     0.025 A 
ATOM     14  C   UNL     1      -4.109  10.235  14.353  1.00  0.00     0.016 A 
ATOM     15  C   UNL     1      -2.982  10.828  14.926  1.00  0.00     0.051 A 
ATOM     16  C   UNL     1      -1.702  10.509  14.461  1.00  0.00     0.157 A 
ATOM     17  C   UNL     1      -2.685   8.983  12.845  1.00  0.00     0.062 A 
ATOM     18  C   UNL     1      -1.551   9.579  13.418  1.00  0.00     0.158 A 
BRANCH  16  19
ATOM     19  O   UNL     1      -0.595  11.122  15.047  1.00  0.00    -0.504 OA
ATOM     20  H   UNL     1      -0.450  11.122  16.050  1.00  0.00     0.293 HD
ENDBRANCH  16  19
BRANCH  18  21
ATOM     21  O   UNL     1      -0.278   9.252  12.954  1.00  0.00    -0.504 OA
ATOM     22  H   UNL     1       0.334   8.635  13.475  1.00  0.00     0.293 HD
ENDBRANCH  18  21
ENDBRANCH   3  13
BRANCH  10  23
ATOM     23  O   UNL     1      -8.978   5.885  10.582  1.00  0.00    -0.507 OA
ATOM     24  H   UNL     1      -8.413   5.164  10.162  1.00  0.00     0.293 HD
ENDBRANCH  10  23
BRANCH  11  25
ATOM     25  O   UNL     1     -10.125  10.493   9.875  1.00  0.00    -0.508 OA
ATOM     26  H   UNL     1     -10.196  10.677   8.881  1.00  0.00     0.293 HD
ENDBRANCH  11  25
ENDBRANCH   1   2
BRANCH   1  27
ATOM     27  C   UNL     1      -4.342   6.047  14.485  1.00  0.00     0.339 C 
ATOM     28  C   UNL     1      -5.389   4.934  14.730  1.00  0.00     0.214 C 
ATOM     29  O   UNL     1      -3.046   5.576  14.804  1.00  0.00    -0.332 OA
ATOM     30  C   UNL     1      -5.312   4.392  16.179  1.00  0.00     0.180 C 
ATOM     31  C   UNL     1      -2.935   5.335  16.196  1.00  0.00     0.179 C 
ATOM     32  C   UNL     1      -3.846   4.152  16.619  1.00  0.00     0.177 C 
BRANCH  28  33
ATOM     33  O   UNL     1      -6.691   5.366  14.421  1.00  0.00    -0.384 OA
ATOM     34  H   UNL     1      -7.036   4.798  13.683  1.00  0.00     0.211 HD
ENDBRANCH  28  33
BRANCH  30  35
ATOM     35  O   UNL     1      -5.979   5.234  17.089  1.00  0.00    -0.387 OA
ATOM     36  H   UNL     1      -6.550   5.860  16.574  1.00  0.00     0.211 HD
ENDBRANCH  30  35
BRANCH  31  37
ATOM     37  C   UNL     1      -1.466   5.052  16.542  1.00  0.00     0.191 C 
BRANCH  37  38
ATOM     38  O   UNL     1      -0.772   4.616  15.403  1.00  0.00    -0.394 OA
ATOM     39  H   UNL     1      -1.176   3.748  15.139  1.00  0.00     0.210 HD
ENDBRANCH  37  38
ENDBRANCH  31  37
BRANCH  32  40
ATOM     40  O   UNL     1      -3.374   2.927  16.109  1.00  0.00    -0.387 OA
ATOM     41  H   UNL     1      -4.089   2.251  16.224  1.00  0.00     0.211 HD
ENDBRANCH  32  40
ENDBRANCH   1  27
TORSDOF 12
ENDMDL
