MODEL 1
REMARK VINA RESULT:    -3.247      0.000      0.000
REMARK INTER + INTRA:          -3.342
REMARK INTER:                  -3.342
REMARK INTRA:                   0.000
REMARK UNBOUND:                 0.000
REMARK SMILES CC1(C)[C@@H]2CC[C@@](C)(C2)[C@@H]1O
REMARK SMILES IDX 1 1 2 2 4 3 5 4 6 5 7 6 9 7 10 8 8 9 3 10 11 11
REMARK H PARENT 11 12
REMARK Flexibility Score: inf
ROOT
ATOM      1  C   UNL     1     159.909 154.007 140.395  1.00  0.00     0.014 C 
ATOM      2  C   UNL     1     159.399 153.511 139.016  1.00  0.00    -0.006 C 
ATOM      3  C   UNL     1     158.091 154.233 138.542  1.00  0.00    -0.002 C 
ATOM      4  C   UNL     1     157.021 154.241 139.655  1.00  0.00     0.005 C 
ATOM      5  C   UNL     1     156.634 152.759 139.766  1.00  0.00     0.010 C 
ATOM      6  C   UNL     1     157.450 152.106 138.626  1.00  0.00    -0.006 C 
ATOM      7  C   UNL     1     157.474 153.216 137.597  1.00  0.00     0.013 C 
ATOM      8  C   UNL     1     158.950 152.012 139.019  1.00  0.00     0.126 C 
ATOM      9  C   UNL     1     156.853 150.794 138.106  1.00  0.00     0.014 C 
ATOM     10  C   UNL     1     160.537 153.748 137.993  1.00  0.00     0.014 C 
ENDROOT
BRANCH   8  11
ATOM     11  O   UNL     1     159.129 151.389 140.268  1.00  0.00    -0.392 OA
ATOM     12  H   UNL     1     160.047 151.011 140.268  1.00  0.00     0.211 HD
ENDBRANCH   8  11
TORSDOF 1
ENDMDL
MODEL 2
REMARK VINA RESULT:    -3.245     10.075     11.550
REMARK INTER + INTRA:          -3.340
REMARK INTER:                  -3.340
REMARK INTRA:                   0.000
REMARK UNBOUND:                 0.000
REMARK SMILES CC1(C)[C@@H]2CC[C@@](C)(C2)[C@@H]1O
REMARK SMILES IDX 1 1 2 2 4 3 5 4 6 5 7 6 9 7 10 8 8 9 3 10 11 11
REMARK H PARENT 11 12
REMARK Flexibility Score: inf
ROOT
ATOM      1  C   UNL     1     147.284 159.905 140.410  1.00  0.00     0.014 C 
ATOM      2  C   UNL     1     147.791 159.390 139.037  1.00  0.00    -0.006 C 
ATOM      3  C   UNL     1     147.068 158.084 138.559  1.00  0.00    -0.002 C 
ATOM      4  C   UNL     1     147.045 157.017 139.674  1.00  0.00     0.005 C 
ATOM      5  C   UNL     1     148.524 156.623 139.800  1.00  0.00     0.010 C 
ATOM      6  C   UNL     1     149.192 157.434 138.664  1.00  0.00    -0.006 C 
ATOM      7  C   UNL     1     148.092 157.461 137.625  1.00  0.00     0.013 C 
ATOM      8  C   UNL     1     149.288 158.934 139.055  1.00  0.00     0.126 C 
ATOM      9  C   UNL     1     150.506 156.831 138.159  1.00  0.00     0.014 C 
ATOM     10  C   UNL     1     147.569 160.527 138.009  1.00  0.00     0.014 C 
ENDROOT
BRANCH   8  11
ATOM     11  O   UNL     1     149.900 159.114 140.310  1.00  0.00    -0.392 OA
ATOM     12  H   UNL     1     149.266 159.640 140.863  1.00  0.00     0.211 HD
ENDBRANCH   8  11
TORSDOF 1
ENDMDL
MODEL 3
REMARK VINA RESULT:    -3.235     10.032     11.494
REMARK INTER + INTRA:          -3.330
REMARK INTER:                  -3.330
REMARK INTRA:                   0.000
REMARK UNBOUND:                 0.000
REMARK SMILES CC1(C)[C@@H]2CC[C@@](C)(C2)[C@@H]1O
REMARK SMILES IDX 1 1 2 2 4 3 5 4 6 5 7 6 9 7 10 8 8 9 3 10 11 11
REMARK H PARENT 11 12
REMARK Flexibility Score: inf
ROOT
ATOM      1  C   UNL     1     153.988 141.417 140.326  1.00  0.00     0.014 C 
ATOM      2  C   UNL     1     153.451 141.984 138.985  1.00  0.00    -0.006 C 
ATOM      3  C   UNL     1     154.185 143.291 138.525  1.00  0.00    -0.002 C 
ATOM      4  C   UNL     1     154.261 144.322 139.671  1.00  0.00     0.005 C 
ATOM      5  C   UNL     1     152.794 144.739 139.853  1.00  0.00     0.010 C 
ATOM      6  C   UNL     1     152.078 143.976 138.713  1.00  0.00    -0.006 C 
ATOM      7  C   UNL     1     153.147 143.961 137.642  1.00  0.00     0.013 C 
ATOM      8  C   UNL     1     151.964 142.466 139.061  1.00  0.00     0.126 C 
ATOM      9  C   UNL     1     150.762 144.619 138.265  1.00  0.00     0.014 C 
ATOM     10  C   UNL     1     153.621 140.875 137.917  1.00  0.00     0.014 C 
ENDROOT
BRANCH   8  11
ATOM     11  O   UNL     1     151.386 142.260 140.327  1.00  0.00    -0.392 OA
ATOM     12  H   UNL     1     150.620 141.643 140.193  1.00  0.00     0.211 HD
ENDBRANCH   8  11
TORSDOF 1
ENDMDL
MODEL 4
REMARK VINA RESULT:    -3.227     13.637     15.409
REMARK INTER + INTRA:          -3.322
REMARK INTER:                  -3.322
REMARK INTRA:                   0.000
REMARK UNBOUND:                 0.000
REMARK SMILES CC1(C)[C@@H]2CC[C@@](C)(C2)[C@@H]1O
REMARK SMILES IDX 1 1 2 2 4 3 5 4 6 5 7 6 9 7 10 8 8 9 3 10 11 11
REMARK H PARENT 11 12
REMARK Flexibility Score: inf
ROOT
ATOM      1  C   UNL     1     145.476 149.606 137.875  1.00  0.00     0.014 C 
ATOM      2  C   UNL     1     144.881 148.902 139.123  1.00  0.00    -0.006 C 
ATOM      3  C   UNL     1     145.032 147.343 139.089  1.00  0.00    -0.002 C 
ATOM      4  C   UNL     1     144.554 146.764 137.740  1.00  0.00     0.005 C 
ATOM      5  C   UNL     1     143.038 147.011 137.781  1.00  0.00     0.010 C 
ATOM      6  C   UNL     1     142.827 147.599 139.196  1.00  0.00    -0.006 C 
ATOM      7  C   UNL     1     143.898 146.879 139.986  1.00  0.00     0.013 C 
ATOM      8  C   UNL     1     143.330 149.067 139.253  1.00  0.00     0.126 C 
ATOM      9  C   UNL     1     141.411 147.398 139.747  1.00  0.00     0.014 C 
ATOM     10  C   UNL     1     145.606 149.480 140.364  1.00  0.00     0.014 C 
ENDROOT
BRANCH   8  11
ATOM     11  O   UNL     1     142.775 149.855 138.227  1.00  0.00    -0.392 OA
ATOM     12  H   UNL     1     142.755 150.788 138.564  1.00  0.00     0.211 HD
ENDBRANCH   8  11
TORSDOF 1
ENDMDL
MODEL 5
REMARK VINA RESULT:    -3.222      9.546     10.825
REMARK INTER + INTRA:          -3.317
REMARK INTER:                  -3.317
REMARK INTRA:                   0.000
REMARK UNBOUND:                 0.000
REMARK SMILES CC1(C)[C@@H]2CC[C@@](C)(C2)[C@@H]1O
REMARK SMILES IDX 1 1 2 2 4 3 5 4 6 5 7 6 9 7 10 8 8 9 3 10 11 11
REMARK H PARENT 11 12
REMARK Flexibility Score: inf
ROOT
ATOM      1  C   UNL     1     151.692 145.460 137.874  1.00  0.00     0.014 C 
ATOM      2  C   UNL     1     152.400 144.870 139.123  1.00  0.00    -0.006 C 
ATOM      3  C   UNL     1     153.959 145.024 139.083  1.00  0.00    -0.002 C 
ATOM      4  C   UNL     1     154.535 144.543 137.734  1.00  0.00     0.005 C 
ATOM      5  C   UNL     1     154.291 143.027 137.780  1.00  0.00     0.010 C 
ATOM      6  C   UNL     1     153.708 142.819 139.198  1.00  0.00    -0.006 C 
ATOM      7  C   UNL     1     154.427 143.894 139.983  1.00  0.00     0.013 C 
ATOM      8  C   UNL     1     152.239 143.319 139.257  1.00  0.00     0.126 C 
ATOM      9  C   UNL     1     153.913 141.405 139.753  1.00  0.00     0.014 C 
ATOM     10  C   UNL     1     151.824 145.598 140.363  1.00  0.00     0.014 C 
ENDROOT
BRANCH   8  11
ATOM     11  O   UNL     1     151.450 142.759 138.235  1.00  0.00    -0.392 OA
ATOM     12  H   UNL     1     151.041 141.936 138.609  1.00  0.00     0.211 HD
ENDBRANCH   8  11
TORSDOF 1
ENDMDL
MODEL 6
REMARK VINA RESULT:    -3.222     14.350     16.245
REMARK INTER + INTRA:          -3.316
REMARK INTER:                  -3.316
REMARK INTRA:                   0.000
REMARK UNBOUND:                 0.000
REMARK SMILES CC1(C)[C@@H]2CC[C@@](C)(C2)[C@@H]1O
REMARK SMILES IDX 1 1 2 2 4 3 5 4 6 5 7 6 9 7 10 8 8 9 3 10 11 11
REMARK H PARENT 11 12
REMARK Flexibility Score: inf
ROOT
ATOM      1  C   UNL     1     141.408 147.295 140.266  1.00  0.00     0.014 C 
ATOM      2  C   UNL     1     141.983 147.832 138.929  1.00  0.00    -0.006 C 
ATOM      3  C   UNL     1     143.284 147.088 138.469  1.00  0.00    -0.002 C 
ATOM      4  C   UNL     1     144.312 146.997 139.617  1.00  0.00     0.005 C 
ATOM      5  C   UNL     1     144.742 148.460 139.806  1.00  0.00     0.010 C 
ATOM      6  C   UNL     1     143.988 149.187 138.668  1.00  0.00    -0.006 C 
ATOM      7  C   UNL     1     143.966 148.124 137.591  1.00  0.00     0.013 C 
ATOM      8  C   UNL     1     142.479 149.314 139.013  1.00  0.00     0.126 C 
ATOM      9  C   UNL     1     144.645 150.500 138.228  1.00  0.00     0.014 C 
ATOM     10  C   UNL     1     140.875 147.678 137.858  1.00  0.00     0.014 C 
ENDROOT
BRANCH   8  11
ATOM     11  O   UNL     1     142.275 149.889 140.281  1.00  0.00    -0.392 OA
ATOM     12  H   UNL     1     142.816 149.361 140.924  1.00  0.00     0.211 HD
ENDBRANCH   8  11
TORSDOF 1
ENDMDL
MODEL 7
REMARK VINA RESULT:    -3.216      1.216      3.365
REMARK INTER + INTRA:          -3.310
REMARK INTER:                  -3.310
REMARK INTRA:                   0.000
REMARK UNBOUND:                 0.000
REMARK SMILES CC1(C)[C@@H]2CC[C@@](C)(C2)[C@@H]1O
REMARK SMILES IDX 1 1 2 2 4 3 5 4 6 5 7 6 9 7 10 8 8 9 3 10 11 11
REMARK H PARENT 11 12
REMARK Flexibility Score: inf
ROOT
ATOM      1  C   UNL     1     155.972 151.685 137.825  1.00  0.00     0.014 C 
ATOM      2  C   UNL     1     156.512 152.368 139.109  1.00  0.00    -0.006 C 
ATOM      3  C   UNL     1     156.339 153.926 139.103  1.00  0.00    -0.002 C 
ATOM      4  C   UNL     1     156.857 154.541 137.785  1.00  0.00     0.005 C 
ATOM      5  C   UNL     1     158.374 154.314 137.875  1.00  0.00     0.010 C 
ATOM      6  C   UNL     1     158.543 153.698 139.284  1.00  0.00    -0.006 C 
ATOM      7  C   UNL     1     157.434 154.385 140.051  1.00  0.00     0.013 C 
ATOM      8  C   UNL     1     158.059 152.222 139.291  1.00  0.00     0.126 C 
ATOM      9  C   UNL     1     159.935 153.906 139.890  1.00  0.00     0.014 C 
ATOM     10  C   UNL     1     155.751 151.753 140.310  1.00  0.00     0.014 C 
ENDROOT
BRANCH   8  11
ATOM     11  O   UNL     1     158.662 151.465 138.269  1.00  0.00    -0.392 OA
ATOM     12  H   UNL     1     159.436 151.993 137.943  1.00  0.00     0.211 HD
ENDBRANCH   8  11
TORSDOF 1
ENDMDL
MODEL 8
REMARK VINA RESULT:    -3.213      9.993     11.530
REMARK INTER + INTRA:          -3.307
REMARK INTER:                  -3.307
REMARK INTRA:                   0.000
REMARK UNBOUND:                 0.000
REMARK SMILES CC1(C)[C@@H]2CC[C@@](C)(C2)[C@@H]1O
REMARK SMILES IDX 1 1 2 2 4 3 5 4 6 5 7 6 9 7 10 8 8 9 3 10 11 11
REMARK H PARENT 11 12
REMARK Flexibility Score: inf
ROOT
ATOM      1  C   UNL     1     149.323 155.513 137.887  1.00  0.00     0.014 C 
ATOM      2  C   UNL     1     148.772 156.312 139.098  1.00  0.00    -0.006 C 
ATOM      3  C   UNL     1     147.210 156.265 139.214  1.00  0.00    -0.002 C 
ATOM      4  C   UNL     1     146.538 156.602 137.866  1.00  0.00     0.005 C 
ATOM      5  C   UNL     1     146.873 158.089 137.680  1.00  0.00     0.010 C 
ATOM      6  C   UNL     1     147.600 158.443 138.999  1.00  0.00    -0.006 C 
ATOM      7  C   UNL     1     146.896 157.535 139.985  1.00  0.00     0.013 C 
ATOM      8  C   UNL     1     149.036 157.852 139.001  1.00  0.00     0.126 C 
ATOM      9  C   UNL     1     147.531 159.928 139.368  1.00  0.00     0.014 C 
ATOM     10  C   UNL     1     149.419 155.717 140.373  1.00  0.00     0.014 C 
ENDROOT
BRANCH   8  11
ATOM     11  O   UNL     1     149.756 158.213 137.848  1.00  0.00    -0.392 OA
ATOM     12  H   UNL     1     149.808 157.402 137.278  1.00  0.00     0.211 HD
ENDBRANCH   8  11
TORSDOF 1
ENDMDL
MODEL 9
REMARK VINA RESULT:    -3.103      7.891     10.387
REMARK INTER + INTRA:          -3.194
REMARK INTER:                  -3.194
REMARK INTRA:                   0.000
REMARK UNBOUND:                 0.000
REMARK SMILES CC1(C)[C@@H]2CC[C@@](C)(C2)[C@@H]1O
REMARK SMILES IDX 1 1 2 2 4 3 5 4 6 5 7 6 9 7 10 8 8 9 3 10 11 11
REMARK H PARENT 11 12
REMARK Flexibility Score: inf
ROOT
ATOM      1  C   UNL     1     152.028 142.567 139.541  1.00  0.00     0.014 C 
ATOM      2  C   UNL     1     152.266 144.068 139.231  1.00  0.00    -0.006 C 
ATOM      3  C   UNL     1     152.395 144.373 137.699  1.00  0.00    -0.002 C 
ATOM      4  C   UNL     1     153.395 143.414 137.019  1.00  0.00     0.005 C 
ATOM      5  C   UNL     1     154.742 143.843 137.620  1.00  0.00     0.010 C 
ATOM      6  C   UNL     1     154.356 145.068 138.483  1.00  0.00    -0.006 C 
ATOM      7  C   UNL     1     153.213 145.653 137.683  1.00  0.00     0.013 C 
ATOM      8  C   UNL     1     153.629 144.610 139.777  1.00  0.00     0.126 C 
ATOM      9  C   UNL     1     155.509 146.048 138.723  1.00  0.00     0.014 C 
ATOM     10  C   UNL     1     151.075 144.855 139.831  1.00  0.00     0.014 C 
ENDROOT
BRANCH   8  11
ATOM     11  O   UNL     1     154.364 143.636 140.478  1.00  0.00    -0.392 OA
ATOM     12  H   UNL     1     155.058 143.300 139.855  1.00  0.00     0.211 HD
ENDBRANCH   8  11
TORSDOF 1
ENDMDL
