MODEL 1
REMARK VINA RESULT:    -4.523      0.000      0.000
REMARK INTER + INTRA:          -8.244
REMARK INTER:                  -7.167
REMARK INTRA:                  -1.077
REMARK UNBOUND:                -1.077
REMARK SMILES CCCCCCCCCCCC(=O)[O-]
REMARK SMILES IDX 7 1 8 2 9 3 10 4 11 5 12 6 13 7 14 8 6 9 5 10 4 11 3 12 2 13
REMARK SMILES IDX 1 14
REMARK H PARENT
REMARK Flexibility Score: inf
ROOT
ATOM      1  C   UNL     1     -22.004 -60.963   0.689  1.00  0.00     0.000 C 
ENDROOT
BRANCH   1   2
ATOM      2  C   UNL     1     -21.879 -60.253  -0.670  1.00  0.00     0.000 C 
BRANCH   2   3
ATOM      3  C   UNL     1     -23.237 -60.068  -1.368  1.00  0.00     0.000 C 
BRANCH   3   4
ATOM      4  C   UNL     1     -24.328 -59.559  -0.412  1.00  0.00     0.006 C 
BRANCH   4   5
ATOM      5  C   UNL     1     -25.683 -59.395  -1.114  1.00  0.00     0.053 C 
BRANCH   5   6
ATOM      6  C   UNL     1     -25.551 -58.668  -2.418  1.00  0.00     0.041 C 
ATOM      7  O   UNL     1     -25.977 -59.193  -3.481  1.00  0.00    -0.550 OA
ATOM      8  O   UNL     1     -24.931 -57.426  -2.464  1.00  0.00    -0.550 OA
ENDBRANCH   5   6
ENDBRANCH   4   5
ENDBRANCH   3   4
ENDBRANCH   2   3
ENDBRANCH   1   2
BRANCH   1   9
ATOM      9  C   UNL     1     -21.878 -62.491   0.574  1.00  0.00     0.000 C 
BRANCH   9  10
ATOM     10  C   UNL     1     -22.943 -63.235   1.399  1.00  0.00    -0.000 C 
BRANCH  10  11
ATOM     11  C   UNL     1     -23.219 -62.559   2.751  1.00  0.00    -0.000 C 
BRANCH  11  12
ATOM     12  C   UNL     1     -24.722 -62.452   3.065  1.00  0.00    -0.000 C 
BRANCH  12  13
ATOM     13  C   UNL     1     -25.318 -61.103   2.637  1.00  0.00    -0.003 C 
ATOM     14  C   UNL     1     -24.647 -59.915   3.329  1.00  0.00     0.004 C 
ENDBRANCH  12  13
ENDBRANCH  11  12
ENDBRANCH  10  11
ENDBRANCH   9  10
ENDBRANCH   1   9
TORSDOF 10
ENDMDL
MODEL 2
REMARK VINA RESULT:    -4.521      1.047      1.321
REMARK INTER + INTRA:          -8.241
REMARK INTER:                  -7.015
REMARK INTRA:                  -1.226
REMARK UNBOUND:                -1.077
REMARK SMILES CCCCCCCCCCCC(=O)[O-]
REMARK SMILES IDX 7 1 8 2 9 3 10 4 11 5 12 6 13 7 14 8 6 9 5 10 4 11 3 12 2 13
REMARK SMILES IDX 1 14
REMARK H PARENT
REMARK Flexibility Score: inf
ROOT
ATOM      1  C   UNL     1     -21.946 -60.456   0.606  1.00  0.00     0.000 C 
ENDROOT
BRANCH   1   2
ATOM      2  C   UNL     1     -21.923 -59.985  -0.859  1.00  0.00     0.000 C 
BRANCH   2   3
ATOM      3  C   UNL     1     -22.977 -58.903  -1.148  1.00  0.00     0.000 C 
BRANCH   3   4
ATOM      4  C   UNL     1     -24.348 -59.496  -1.514  1.00  0.00     0.006 C 
BRANCH   4   5
ATOM      5  C   UNL     1     -25.415 -58.411  -1.711  1.00  0.00     0.053 C 
BRANCH   5   6
ATOM      6  C   UNL     1     -26.028 -58.473  -3.077  1.00  0.00     0.041 C 
ATOM      7  O   UNL     1     -26.578 -57.454  -3.571  1.00  0.00    -0.550 OA
ATOM      8  O   UNL     1     -26.019 -59.665  -3.791  1.00  0.00    -0.550 OA
ENDBRANCH   5   6
ENDBRANCH   4   5
ENDBRANCH   3   4
ENDBRANCH   2   3
ENDBRANCH   1   2
BRANCH   1   9
ATOM      9  C   UNL     1     -21.897 -61.987   0.737  1.00  0.00     0.000 C 
BRANCH   9  10
ATOM     10  C   UNL     1     -22.892 -62.522   1.781  1.00  0.00    -0.000 C 
BRANCH  10  11
ATOM     11  C   UNL     1     -23.472 -61.408   2.667  1.00  0.00    -0.000 C 
BRANCH  11  12
ATOM     12  C   UNL     1     -25.008 -61.332   2.596  1.00  0.00    -0.000 C 
BRANCH  12  13
ATOM     13  C   UNL     1     -25.500 -60.089   1.840  1.00  0.00    -0.003 C 
ATOM     14  C   UNL     1     -24.782 -58.811   2.275  1.00  0.00     0.004 C 
ENDBRANCH  12  13
ENDBRANCH  11  12
ENDBRANCH  10  11
ENDBRANCH   9  10
ENDBRANCH   1   9
TORSDOF 10
ENDMDL
MODEL 3
REMARK VINA RESULT:    -4.484      1.200      1.929
REMARK INTER + INTRA:          -8.182
REMARK INTER:                  -6.551
REMARK INTRA:                  -1.631
REMARK UNBOUND:                -1.077
REMARK SMILES CCCCCCCCCCCC(=O)[O-]
REMARK SMILES IDX 7 1 8 2 9 3 10 4 11 5 12 6 13 7 14 8 6 9 5 10 4 11 3 12 2 13
REMARK SMILES IDX 1 14
REMARK H PARENT
REMARK Flexibility Score: inf
ROOT
ATOM      1  C   UNL     1     -21.997 -61.464   0.245  1.00  0.00     0.000 C 
ENDROOT
BRANCH   1   2
ATOM      2  C   UNL     1     -21.875 -59.936   0.378  1.00  0.00     0.000 C 
BRANCH   2   3
ATOM      3  C   UNL     1     -22.586 -59.184  -0.759  1.00  0.00     0.000 C 
BRANCH   3   4
ATOM      4  C   UNL     1     -23.892 -59.870  -1.195  1.00  0.00     0.006 C 
BRANCH   4   5
ATOM      5  C   UNL     1     -25.082 -58.901  -1.200  1.00  0.00     0.053 C 
BRANCH   5   6
ATOM      6  C   UNL     1     -25.273 -58.259  -2.541  1.00  0.00     0.041 C 
ATOM      7  O   UNL     1     -24.857 -57.088  -2.747  1.00  0.00    -0.550 OA
ATOM      8  O   UNL     1     -25.934 -58.943  -3.553  1.00  0.00    -0.550 OA
ENDBRANCH   5   6
ENDBRANCH   4   5
ENDBRANCH   3   4
ENDBRANCH   2   3
ENDBRANCH   1   2
BRANCH   1   9
ATOM      9  C   UNL     1     -22.614 -62.120   1.491  1.00  0.00     0.000 C 
BRANCH   9  10
ATOM     10  C   UNL     1     -23.199 -61.090   2.472  1.00  0.00    -0.000 C 
BRANCH  10  11
ATOM     11  C   UNL     1     -24.735 -61.046   2.435  1.00  0.00    -0.000 C 
BRANCH  11  12
ATOM     12  C   UNL     1     -25.289 -59.610   2.467  1.00  0.00    -0.000 C 
BRANCH  12  13
ATOM     13  C   UNL     1     -24.277 -58.603   3.033  1.00  0.00    -0.003 C 
ATOM     14  C   UNL     1     -24.068 -57.397   2.116  1.00  0.00     0.004 C 
ENDBRANCH  12  13
ENDBRANCH  11  12
ENDBRANCH  10  11
ENDBRANCH   9  10
ENDBRANCH   1   9
TORSDOF 10
ENDMDL
MODEL 4
REMARK VINA RESULT:    -4.422      1.320      2.706
REMARK INTER + INTRA:          -8.084
REMARK INTER:                  -6.866
REMARK INTRA:                  -1.219
REMARK UNBOUND:                -1.077
REMARK SMILES CCCCCCCCCCCC(=O)[O-]
REMARK SMILES IDX 7 1 8 2 9 3 10 4 11 5 12 6 13 7 14 8 6 9 5 10 4 11 3 12 2 13
REMARK SMILES IDX 1 14
REMARK H PARENT
REMARK Flexibility Score: inf
ROOT
ATOM      1  C   UNL     1     -23.300 -58.478   2.669  1.00  0.00     0.000 C 
ENDROOT
BRANCH   1   2
ATOM      2  C   UNL     1     -22.567 -57.914   1.440  1.00  0.00     0.000 C 
BRANCH   2   3
ATOM      3  C   UNL     1     -21.924 -59.013   0.578  1.00  0.00     0.000 C 
BRANCH   3   4
ATOM      4  C   UNL     1     -22.482 -59.042  -0.855  1.00  0.00     0.006 C 
BRANCH   4   5
ATOM      5  C   UNL     1     -23.935 -59.535  -0.902  1.00  0.00     0.053 C 
BRANCH   5   6
ATOM      6  C   UNL     1     -24.749 -58.774  -1.904  1.00  0.00     0.041 C 
ATOM      7  O   UNL     1     -25.498 -59.388  -2.708  1.00  0.00    -0.550 OA
ATOM      8  O   UNL     1     -24.658 -57.390  -1.969  1.00  0.00    -0.550 OA
ENDBRANCH   5   6
ENDBRANCH   4   5
ENDBRANCH   3   4
ENDBRANCH   2   3
ENDBRANCH   1   2
BRANCH   1   9
ATOM      9  C   UNL     1     -23.242 -60.013   2.741  1.00  0.00     0.000 C 
BRANCH   9  10
ATOM     10  C   UNL     1     -24.620 -60.665   2.533  1.00  0.00    -0.000 C 
BRANCH  10  11
ATOM     11  C   UNL     1     -24.580 -62.193   2.695  1.00  0.00    -0.000 C 
BRANCH  11  12
ATOM     12  C   UNL     1     -23.149 -62.759   2.628  1.00  0.00    -0.000 C 
BRANCH  12  13
ATOM     13  C   UNL     1     -22.836 -63.406   1.270  1.00  0.00    -0.003 C 
ATOM     14  C   UNL     1     -21.879 -62.566   0.423  1.00  0.00     0.004 C 
ENDBRANCH  12  13
ENDBRANCH  11  12
ENDBRANCH  10  11
ENDBRANCH   9  10
ENDBRANCH   1   9
TORSDOF 10
ENDMDL
MODEL 5
REMARK VINA RESULT:    -4.380      1.284      2.607
REMARK INTER + INTRA:          -8.018
REMARK INTER:                  -6.699
REMARK INTRA:                  -1.319
REMARK UNBOUND:                -1.077
REMARK SMILES CCCCCCCCCCCC(=O)[O-]
REMARK SMILES IDX 7 1 8 2 9 3 10 4 11 5 12 6 13 7 14 8 6 9 5 10 4 11 3 12 2 13
REMARK SMILES IDX 1 14
REMARK H PARENT
REMARK Flexibility Score: inf
ROOT
ATOM      1  C   UNL     1     -22.914 -63.127   1.669  1.00  0.00     0.000 C 
ENDROOT
BRANCH   1   2
ATOM      2  C   UNL     1     -21.931 -62.632   0.593  1.00  0.00     0.000 C 
BRANCH   2   3
ATOM      3  C   UNL     1     -21.876 -61.099   0.504  1.00  0.00     0.000 C 
BRANCH   3   4
ATOM      4  C   UNL     1     -22.204 -60.576  -0.905  1.00  0.00     0.006 C 
BRANCH   4   5
ATOM      5  C   UNL     1     -22.462 -59.063  -0.917  1.00  0.00     0.053 C 
BRANCH   5   6
ATOM      6  C   UNL     1     -23.851 -58.739  -1.377  1.00  0.00     0.041 C 
ATOM      7  O   UNL     1     -24.544 -59.611  -1.964  1.00  0.00    -0.550 OA
ATOM      8  O   UNL     1     -24.369 -57.464  -1.183  1.00  0.00    -0.550 OA
ENDBRANCH   5   6
ENDBRANCH   4   5
ENDBRANCH   3   4
ENDBRANCH   2   3
ENDBRANCH   1   2
BRANCH   1   9
ATOM      9  C   UNL     1     -23.298 -62.027   2.673  1.00  0.00     0.000 C 
BRANCH   9  10
ATOM     10  C   UNL     1     -24.810 -61.743   2.686  1.00  0.00    -0.000 C 
BRANCH  10  11
ATOM     11  C   UNL     1     -25.195 -60.560   1.785  1.00  0.00    -0.000 C 
BRANCH  11  12
ATOM     12  C   UNL     1     -25.337 -59.240   2.565  1.00  0.00    -0.000 C 
BRANCH  12  13
ATOM     13  C   UNL     1     -24.186 -58.263   2.281  1.00  0.00    -0.003 C 
ATOM     14  C   UNL     1     -23.080 -58.331   3.335  1.00  0.00     0.004 C 
ENDBRANCH  12  13
ENDBRANCH  11  12
ENDBRANCH  10  11
ENDBRANCH   9  10
ENDBRANCH   1   9
TORSDOF 10
ENDMDL
MODEL 6
REMARK VINA RESULT:    -4.353      3.894      4.755
REMARK INTER + INTRA:          -7.974
REMARK INTER:                  -6.998
REMARK INTRA:                  -0.976
REMARK UNBOUND:                -1.077
REMARK SMILES CCCCCCCCCCCC(=O)[O-]
REMARK SMILES IDX 7 1 8 2 9 3 10 4 11 5 12 6 13 7 14 8 6 9 5 10 4 11 3 12 2 13
REMARK SMILES IDX 1 14
REMARK H PARENT
REMARK Flexibility Score: inf
ROOT
ATOM      1  C   UNL     1     -22.767 -60.235   0.465  1.00  0.00     0.000 C 
ENDROOT
BRANCH   1   2
ATOM      2  C   UNL     1     -22.016 -58.893   0.461  1.00  0.00     0.000 C 
BRANCH   2   3
ATOM      3  C   UNL     1     -22.447 -57.971   1.613  1.00  0.00     0.000 C 
BRANCH   3   4
ATOM      4  C   UNL     1     -23.037 -58.747   2.803  1.00  0.00     0.006 C 
BRANCH   4   5
ATOM      5  C   UNL     1     -23.638 -57.815   3.863  1.00  0.00     0.053 C 
BRANCH   5   6
ATOM      6  C   UNL     1     -22.797 -57.765   5.102  1.00  0.00     0.041 C 
ATOM      7  O   UNL     1     -21.887 -56.902   5.216  1.00  0.00    -0.550 OA
ATOM      8  O   UNL     1     -22.999 -58.689   6.119  1.00  0.00    -0.550 OA
ENDBRANCH   5   6
ENDBRANCH   4   5
ENDBRANCH   3   4
ENDBRANCH   2   3
ENDBRANCH   1   2
BRANCH   1   9
ATOM      9  C   UNL     1     -21.875 -61.415   0.043  1.00  0.00     0.000 C 
BRANCH   9  10
ATOM     10  C   UNL     1     -22.140 -62.682   0.876  1.00  0.00    -0.000 C 
BRANCH  10  11
ATOM     11  C   UNL     1     -22.882 -62.380   2.188  1.00  0.00    -0.000 C 
BRANCH  11  12
ATOM     12  C   UNL     1     -23.888 -63.482   2.568  1.00  0.00    -0.000 C 
BRANCH  12  13
ATOM     13  C   UNL     1     -25.084 -62.938   3.362  1.00  0.00    -0.003 C 
ATOM     14  C   UNL     1     -25.498 -61.534   2.917  1.00  0.00     0.004 C 
ENDBRANCH  12  13
ENDBRANCH  11  12
ENDBRANCH  10  11
ENDBRANCH   9  10
ENDBRANCH   1   9
TORSDOF 10
ENDMDL
MODEL 7
REMARK VINA RESULT:    -4.343      1.260      2.412
REMARK INTER + INTRA:          -7.958
REMARK INTER:                  -6.819
REMARK INTRA:                  -1.140
REMARK UNBOUND:                -1.077
REMARK SMILES CCCCCCCCCCCC(=O)[O-]
REMARK SMILES IDX 7 1 8 2 9 3 10 4 11 5 12 6 13 7 14 8 6 9 5 10 4 11 3 12 2 13
REMARK SMILES IDX 1 14
REMARK H PARENT
REMARK Flexibility Score: inf
ROOT
ATOM      1  C   UNL     1     -21.935 -59.112   0.738  1.00  0.00     0.000 C 
ENDROOT
BRANCH   1   2
ATOM      2  C   UNL     1     -22.529 -58.732  -0.629  1.00  0.00     0.000 C 
BRANCH   2   3
ATOM      3  C   UNL     1     -23.381 -59.858  -1.238  1.00  0.00     0.000 C 
BRANCH   3   4
ATOM      4  C   UNL     1     -24.819 -59.870  -0.694  1.00  0.00     0.006 C 
BRANCH   4   5
ATOM      5  C   UNL     1     -25.622 -58.644  -1.150  1.00  0.00     0.053 C 
BRANCH   5   6
ATOM      6  C   UNL     1     -25.612 -58.493  -2.641  1.00  0.00     0.041 C 
ATOM      7  O   UNL     1     -25.269 -57.401  -3.164  1.00  0.00    -0.550 OA
ATOM      8  O   UNL     1     -26.009 -59.550  -3.450  1.00  0.00    -0.550 OA
ENDBRANCH   5   6
ENDBRANCH   4   5
ENDBRANCH   3   4
ENDBRANCH   2   3
ENDBRANCH   1   2
BRANCH   1   9
ATOM      9  C   UNL     1     -22.518 -58.277   1.890  1.00  0.00     0.000 C 
BRANCH   9  10
ATOM     10  C   UNL     1     -23.710 -58.968   2.575  1.00  0.00    -0.000 C 
BRANCH  10  11
ATOM     11  C   UNL     1     -23.495 -60.479   2.750  1.00  0.00    -0.000 C 
BRANCH  11  12
ATOM     12  C   UNL     1     -24.817 -61.266   2.793  1.00  0.00    -0.000 C 
BRANCH  12  13
ATOM     13  C   UNL     1     -24.596 -62.785   2.853  1.00  0.00    -0.003 C 
ATOM     14  C   UNL     1     -23.374 -63.235   2.050  1.00  0.00     0.004 C 
ENDBRANCH  12  13
ENDBRANCH  11  12
ENDBRANCH  10  11
ENDBRANCH   9  10
ENDBRANCH   1   9
TORSDOF 10
ENDMDL
MODEL 8
REMARK VINA RESULT:    -4.335      3.429      5.334
REMARK INTER + INTRA:          -7.946
REMARK INTER:                  -6.582
REMARK INTRA:                  -1.365
REMARK UNBOUND:                -1.077
REMARK SMILES CCCCCCCCCCCC(=O)[O-]
REMARK SMILES IDX 7 1 8 2 9 3 10 4 11 5 12 6 13 7 14 8 6 9 5 10 4 11 3 12 2 13
REMARK SMILES IDX 1 14
REMARK H PARENT
REMARK Flexibility Score: inf
ROOT
ATOM      1  C   UNL     1     -22.301 -60.811   0.307  1.00  0.00     0.000 C 
ENDROOT
BRANCH   1   2
ATOM      2  C   UNL     1     -22.428 -59.737   1.400  1.00  0.00     0.000 C 
BRANCH   2   3
ATOM      3  C   UNL     1     -23.429 -60.127   2.500  1.00  0.00     0.000 C 
BRANCH   3   4
ATOM      4  C   UNL     1     -24.453 -61.171   2.023  1.00  0.00     0.006 C 
BRANCH   4   5
ATOM      5  C   UNL     1     -24.594 -62.338   3.010  1.00  0.00     0.053 C 
BRANCH   5   6
ATOM      6  C   UNL     1     -23.365 -63.196   3.038  1.00  0.00     0.041 C 
ATOM      7  O   UNL     1     -22.674 -63.278   4.087  1.00  0.00    -0.550 OA
ATOM      8  O   UNL     1     -22.968 -63.880   1.896  1.00  0.00    -0.550 OA
ENDBRANCH   5   6
ENDBRANCH   4   5
ENDBRANCH   3   4
ENDBRANCH   2   3
ENDBRANCH   1   2
BRANCH   1   9
ATOM      9  C   UNL     1     -22.238 -60.213  -1.108  1.00  0.00     0.000 C 
BRANCH   9  10
ATOM     10  C   UNL     1     -23.219 -59.044  -1.299  1.00  0.00    -0.000 C 
BRANCH  10  11
ATOM     11  C   UNL     1     -24.656 -59.518  -1.565  1.00  0.00    -0.000 C 
BRANCH  11  12
ATOM     12  C   UNL     1     -25.671 -58.926  -0.570  1.00  0.00    -0.000 C 
BRANCH  12  13
ATOM     13  C   UNL     1     -25.186 -57.607   0.049  1.00  0.00    -0.003 C 
ATOM     14  C   UNL     1     -25.687 -56.378  -0.711  1.00  0.00     0.004 C 
ENDBRANCH  12  13
ENDBRANCH  11  12
ENDBRANCH  10  11
ENDBRANCH   9  10
ENDBRANCH   1   9
TORSDOF 10
ENDMDL
MODEL 9
REMARK VINA RESULT:    -4.283      1.029      1.577
REMARK INTER + INTRA:          -7.864
REMARK INTER:                  -7.005
REMARK INTRA:                  -0.859
REMARK UNBOUND:                -1.077
REMARK SMILES CCCCCCCCCCCC(=O)[O-]
REMARK SMILES IDX 7 1 8 2 9 3 10 4 11 5 12 6 13 7 14 8 6 9 5 10 4 11 3 12 2 13
REMARK SMILES IDX 1 14
REMARK H PARENT
REMARK Flexibility Score: inf
ROOT
ATOM      1  C   UNL     1     -21.915 -62.528   0.268  1.00  0.00     0.000 C 
ENDROOT
BRANCH   1   2
ATOM      2  C   UNL     1     -21.899 -60.995   0.406  1.00  0.00     0.000 C 
BRANCH   2   3
ATOM      3  C   UNL     1     -22.782 -60.298  -0.642  1.00  0.00     0.000 C 
BRANCH   3   4
ATOM      4  C   UNL     1     -23.895 -59.448  -0.007  1.00  0.00     0.006 C 
BRANCH   4   5
ATOM      5  C   UNL     1     -25.233 -59.603  -0.741  1.00  0.00     0.053 C 
BRANCH   5   6
ATOM      6  C   UNL     1     -25.212 -58.943  -2.085  1.00  0.00     0.041 C 
ATOM      7  O   UNL     1     -25.698 -59.530  -3.087  1.00  0.00    -0.550 OA
ATOM      8  O   UNL     1     -24.628 -57.691  -2.238  1.00  0.00    -0.550 OA
ENDBRANCH   5   6
ENDBRANCH   4   5
ENDBRANCH   3   4
ENDBRANCH   2   3
ENDBRANCH   1   2
BRANCH   1   9
ATOM      9  C   UNL     1     -22.773 -63.211   1.346  1.00  0.00     0.000 C 
BRANCH   9  10
ATOM     10  C   UNL     1     -23.249 -62.230   2.431  1.00  0.00    -0.000 C 
BRANCH  10  11
ATOM     11  C   UNL     1     -24.666 -62.548   2.932  1.00  0.00    -0.000 C 
BRANCH  11  12
ATOM     12  C   UNL     1     -25.467 -61.283   3.291  1.00  0.00    -0.000 C 
BRANCH  12  13
ATOM     13  C   UNL     1     -26.885 -61.605   3.786  1.00  0.00    -0.003 C 
ATOM     14  C   UNL     1     -26.953 -62.917   4.569  1.00  0.00     0.004 C 
ENDBRANCH  12  13
ENDBRANCH  11  12
ENDBRANCH  10  11
ENDBRANCH   9  10
ENDBRANCH   1   9
TORSDOF 10
ENDMDL
