MODEL 1
REMARK VINA RESULT:    30.892      0.000      0.000
REMARK INTER + INTRA:          80.493
REMARK INTER:                  81.460
REMARK INTRA:                  -0.966
REMARK UNBOUND:                -0.966
REMARK SMILES CCCCCCCCCCCCCCCCCCCCCCCCCCCCCC(=O)[O-]
REMARK SMILES IDX 16 1 17 2 18 3 19 4 20 5 21 6 22 7 23 8 24 9 25 10 26 11
REMARK SMILES IDX 27 12 28 13 29 14 30 15 31 16 32 17 15 18 14 19 13 20 12 21
REMARK SMILES IDX 11 22 10 23 9 24 8 25 7 26 6 27 5 28 4 29 3 30 2 31 1 32
REMARK H PARENT
REMARK Flexibility Score: inf
ROOT
ATOM      1  C   UNL     1      -6.331  12.215 -24.149  1.00  0.00     0.000 C 
ENDROOT
BRANCH   1   2
ATOM      2  C   UNL     1      -7.649  12.167 -23.368  1.00  0.00     0.000 C 
BRANCH   2   3
ATOM      3  C   UNL     1      -7.415  12.472 -21.879  1.00  0.00     0.000 C 
BRANCH   3   4
ATOM      4  C   UNL     1      -8.707  12.849 -21.129  1.00  0.00     0.000 C 
BRANCH   4   5
ATOM      5  C   UNL     1      -8.807  14.338 -20.752  1.00  0.00     0.000 C 
BRANCH   5   6
ATOM      6  C   UNL     1      -8.551  14.600 -19.262  1.00  0.00     0.000 C 
BRANCH   6   7
ATOM      7  C   UNL     1      -8.803  13.337 -18.426  1.00  0.00     0.000 C 
BRANCH   7   8
ATOM      8  C   UNL     1      -9.753  13.592 -17.243  1.00  0.00     0.000 C 
BRANCH   8   9
ATOM      9  C   UNL     1     -10.319  15.021 -17.242  1.00  0.00     0.000 C 
BRANCH   9  10
ATOM     10  C   UNL     1      -9.198  16.058 -17.413  1.00  0.00     0.000 C 
BRANCH  10  11
ATOM     11  C   UNL     1      -9.731  17.436 -17.845  1.00  0.00     0.000 C 
BRANCH  11  12
ATOM     12  C   UNL     1      -9.341  18.549 -16.859  1.00  0.00     0.000 C 
BRANCH  12  13
ATOM     13  C   UNL     1      -7.838  18.555 -16.521  1.00  0.00     0.006 C 
BRANCH  13  14
ATOM     14  C   UNL     1      -7.286  19.941 -16.141  1.00  0.00     0.053 C 
BRANCH  14  15
ATOM     15  C   UNL     1      -6.780  19.995 -14.734  1.00  0.00     0.041 C 
ATOM     16  O   UNL     1      -7.126  19.117 -13.902  1.00  0.00    -0.550 OA
ATOM     17  O   UNL     1      -5.943  21.030 -14.335  1.00  0.00    -0.550 OA
ENDBRANCH  14  15
ENDBRANCH  13  14
ENDBRANCH  12  13
ENDBRANCH  11  12
ENDBRANCH  10  11
ENDBRANCH   9  10
ENDBRANCH   8   9
ENDBRANCH   7   8
ENDBRANCH   6   7
ENDBRANCH   5   6
ENDBRANCH   4   5
ENDBRANCH   3   4
ENDBRANCH   2   3
ENDBRANCH   1   2
BRANCH   1  18
ATOM     18  C   UNL     1      -5.602  10.863 -24.099  1.00  0.00     0.000 C 
BRANCH  18  19
ATOM     19  C   UNL     1      -5.870  10.019 -25.357  1.00  0.00     0.000 C 
BRANCH  19  20
ATOM     20  C   UNL     1      -4.903   8.826 -25.467  1.00  0.00     0.000 C 
BRANCH  20  21
ATOM     21  C   UNL     1      -3.885   8.764 -24.310  1.00  0.00     0.000 C 
BRANCH  21  22
ATOM     22  C   UNL     1      -2.441   8.458 -24.752  1.00  0.00     0.000 C 
BRANCH  22  23
ATOM     23  C   UNL     1      -1.465   9.648 -24.713  1.00  0.00     0.000 C 
BRANCH  23  24
ATOM     24  C   UNL     1      -1.575  10.543 -23.465  1.00  0.00    -0.000 C 
BRANCH  24  25
ATOM     25  C   UNL     1      -0.255  11.252 -23.123  1.00  0.00    -0.000 C 
BRANCH  25  26
ATOM     26  C   UNL     1       0.008  11.332 -21.608  1.00  0.00    -0.000 C 
BRANCH  26  27
ATOM     27  C   UNL     1      -0.553  10.157 -20.784  1.00  0.00    -0.000 C 
BRANCH  27  28
ATOM     28  C   UNL     1       0.223   8.846 -20.998  1.00  0.00    -0.000 C 
BRANCH  28  29
ATOM     29  C   UNL     1      -0.676   7.685 -21.465  1.00  0.00    -0.000 C 
BRANCH  29  30
ATOM     30  C   UNL     1      -2.157   7.790 -21.048  1.00  0.00    -0.000 C 
BRANCH  30  31
ATOM     31  C   UNL     1      -2.547   6.965 -19.809  1.00  0.00    -0.003 C 
ATOM     32  C   UNL     1      -3.548   7.683 -18.904  1.00  0.00     0.004 C 
ENDBRANCH  30  31
ENDBRANCH  29  30
ENDBRANCH  28  29
ENDBRANCH  27  28
ENDBRANCH  26  27
ENDBRANCH  25  26
ENDBRANCH  24  25
ENDBRANCH  23  24
ENDBRANCH  22  23
ENDBRANCH  21  22
ENDBRANCH  20  21
ENDBRANCH  19  20
ENDBRANCH  18  19
ENDBRANCH   1  18
TORSDOF 28
ENDMDL
MODEL 2
REMARK VINA RESULT:    30.896      4.242      7.407
REMARK INTER + INTRA:          80.503
REMARK INTER:                  81.910
REMARK INTRA:                  -1.407
REMARK UNBOUND:                -0.966
REMARK SMILES CCCCCCCCCCCCCCCCCCCCCCCCCCCCCC(=O)[O-]
REMARK SMILES IDX 16 1 17 2 18 3 19 4 20 5 21 6 22 7 23 8 24 9 25 10 26 11
REMARK SMILES IDX 27 12 28 13 29 14 30 15 31 16 32 17 15 18 14 19 13 20 12 21
REMARK SMILES IDX 11 22 10 23 9 24 8 25 7 26 6 27 5 28 4 29 3 30 2 31 1 32
REMARK H PARENT
REMARK Flexibility Score: inf
ROOT
ATOM      1  C   UNL     1      -8.667  13.641 -18.474  1.00  0.00     0.000 C 
ENDROOT
BRANCH   1   2
ATOM      2  C   UNL     1      -9.679  14.410 -17.616  1.00  0.00     0.000 C 
BRANCH   2   3
ATOM      3  C   UNL     1      -9.209  15.855 -17.381  1.00  0.00     0.000 C 
BRANCH   3   4
ATOM      4  C   UNL     1     -10.217  16.907 -17.885  1.00  0.00     0.000 C 
BRANCH   4   5
ATOM      5  C   UNL     1      -9.672  18.346 -17.904  1.00  0.00     0.000 C 
BRANCH   5   6
ATOM      6  C   UNL     1      -9.322  18.876 -16.508  1.00  0.00     0.000 C 
BRANCH   6   7
ATOM      7  C   UNL     1      -7.888  19.427 -16.468  1.00  0.00     0.000 C 
BRANCH   7   8
ATOM      8  C   UNL     1      -7.216  19.224 -15.099  1.00  0.00     0.000 C 
BRANCH   8   9
ATOM      9  C   UNL     1      -7.615  20.307 -14.084  1.00  0.00     0.000 C 
BRANCH   9  10
ATOM     10  C   UNL     1      -8.861  19.888 -13.290  1.00  0.00     0.000 C 
BRANCH  10  11
ATOM     11  C   UNL     1     -10.159  20.466 -13.882  1.00  0.00     0.000 C 
BRANCH  11  12
ATOM     12  C   UNL     1     -11.034  21.148 -12.817  1.00  0.00     0.000 C 
BRANCH  12  13
ATOM     13  C   UNL     1     -10.734  22.651 -12.664  1.00  0.00     0.006 C 
BRANCH  13  14
ATOM     14  C   UNL     1      -9.416  22.956 -11.931  1.00  0.00     0.053 C 
BRANCH  14  15
ATOM     15  C   UNL     1      -9.558  24.051 -10.920  1.00  0.00     0.041 C 
ATOM     16  O   UNL     1      -9.479  23.794  -9.692  1.00  0.00    -0.550 OA
ATOM     17  O   UNL     1      -9.798  25.356 -11.336  1.00  0.00    -0.550 OA
ENDBRANCH  14  15
ENDBRANCH  13  14
ENDBRANCH  12  13
ENDBRANCH  11  12
ENDBRANCH  10  11
ENDBRANCH   9  10
ENDBRANCH   8   9
ENDBRANCH   7   8
ENDBRANCH   6   7
ENDBRANCH   5   6
ENDBRANCH   4   5
ENDBRANCH   3   4
ENDBRANCH   2   3
ENDBRANCH   1   2
BRANCH   1  18
ATOM     18  C   UNL     1      -8.456  14.323 -19.835  1.00  0.00     0.000 C 
BRANCH  18  19
ATOM     19  C   UNL     1      -9.493  13.864 -20.874  1.00  0.00     0.000 C 
BRANCH  19  20
ATOM     20  C   UNL     1      -9.104  12.523 -21.523  1.00  0.00     0.000 C 
BRANCH  20  21
ATOM     21  C   UNL     1      -7.581  12.345 -21.678  1.00  0.00     0.000 C 
BRANCH  21  22
ATOM     22  C   UNL     1      -7.025  12.799 -23.042  1.00  0.00     0.000 C 
BRANCH  22  23
ATOM     23  C   UNL     1      -6.227  11.738 -23.824  1.00  0.00     0.000 C 
BRANCH  23  24
ATOM     24  C   UNL     1      -6.170  11.956 -25.347  1.00  0.00    -0.000 C 
BRANCH  24  25
ATOM     25  C   UNL     1      -6.596  13.375 -25.761  1.00  0.00    -0.000 C 
BRANCH  25  26
ATOM     26  C   UNL     1      -5.399  14.290 -26.077  1.00  0.00    -0.000 C 
BRANCH  26  27
ATOM     27  C   UNL     1      -5.766  15.665 -26.668  1.00  0.00    -0.000 C 
BRANCH  27  28
ATOM     28  C   UNL     1      -4.633  16.698 -26.540  1.00  0.00    -0.000 C 
BRANCH  28  29
ATOM     29  C   UNL     1      -4.235  16.974 -25.077  1.00  0.00    -0.000 C 
BRANCH  29  30
ATOM     30  C   UNL     1      -5.385  17.431 -24.156  1.00  0.00    -0.000 C 
BRANCH  30  31
ATOM     31  C   UNL     1      -5.979  18.811 -24.489  1.00  0.00    -0.003 C 
ATOM     32  C   UNL     1      -6.921  19.332 -23.404  1.00  0.00     0.004 C 
ENDBRANCH  30  31
ENDBRANCH  29  30
ENDBRANCH  28  29
ENDBRANCH  27  28
ENDBRANCH  26  27
ENDBRANCH  25  26
ENDBRANCH  24  25
ENDBRANCH  23  24
ENDBRANCH  22  23
ENDBRANCH  21  22
ENDBRANCH  20  21
ENDBRANCH  19  20
ENDBRANCH  18  19
ENDBRANCH   1  18
TORSDOF 28
ENDMDL
MODEL 3
REMARK VINA RESULT:    30.917      4.300      7.497
REMARK INTER + INTRA:          80.558
REMARK INTER:                  82.414
REMARK INTRA:                  -1.855
REMARK UNBOUND:                -0.966
REMARK SMILES CCCCCCCCCCCCCCCCCCCCCCCCCCCCCC(=O)[O-]
REMARK SMILES IDX 16 1 17 2 18 3 19 4 20 5 21 6 22 7 23 8 24 9 25 10 26 11
REMARK SMILES IDX 27 12 28 13 29 14 30 15 31 16 32 17 15 18 14 19 13 20 12 21
REMARK SMILES IDX 11 22 10 23 9 24 8 25 7 26 6 27 5 28 4 29 3 30 2 31 1 32
REMARK H PARENT
REMARK Flexibility Score: inf
ROOT
ATOM      1  C   UNL     1      -8.597  14.756 -17.651  1.00  0.00     0.000 C 
ENDROOT
BRANCH   1   2
ATOM      2  C   UNL     1      -9.919  15.511 -17.461  1.00  0.00     0.000 C 
BRANCH   2   3
ATOM      3  C   UNL     1      -9.864  16.890 -18.139  1.00  0.00     0.000 C 
BRANCH   3   4
ATOM      4  C   UNL     1     -10.055  18.057 -17.150  1.00  0.00     0.000 C 
BRANCH   4   5
ATOM      5  C   UNL     1      -8.968  19.142 -17.237  1.00  0.00     0.000 C 
BRANCH   5   6
ATOM      6  C   UNL     1      -7.633  18.709 -16.618  1.00  0.00     0.000 C 
BRANCH   6   7
ATOM      7  C   UNL     1      -6.832  19.922 -16.121  1.00  0.00     0.000 C 
BRANCH   7   8
ATOM      8  C   UNL     1      -7.020  20.177 -14.616  1.00  0.00     0.000 C 
BRANCH   8   9
ATOM      9  C   UNL     1      -5.791  19.761 -13.793  1.00  0.00     0.000 C 
BRANCH   9  10
ATOM     10  C   UNL     1      -6.193  18.859 -12.617  1.00  0.00     0.000 C 
BRANCH  10  11
ATOM     11  C   UNL     1      -7.476  18.056 -12.901  1.00  0.00     0.000 C 
BRANCH  11  12
ATOM     12  C   UNL     1      -8.555  18.280 -11.828  1.00  0.00     0.000 C 
BRANCH  12  13
ATOM     13  C   UNL     1      -9.907  18.724 -12.418  1.00  0.00     0.006 C 
BRANCH  13  14
ATOM     14  C   UNL     1      -9.812  19.933 -13.365  1.00  0.00     0.053 C 
BRANCH  14  15
ATOM     15  C   UNL     1     -10.611  21.105 -12.887  1.00  0.00     0.041 C 
ATOM     16  O   UNL     1     -11.856  21.004 -12.738  1.00  0.00    -0.550 OA
ATOM     17  O   UNL     1      -9.983  22.316 -12.625  1.00  0.00    -0.550 OA
ENDBRANCH  14  15
ENDBRANCH  13  14
ENDBRANCH  12  13
ENDBRANCH  11  12
ENDBRANCH  10  11
ENDBRANCH   9  10
ENDBRANCH   8   9
ENDBRANCH   7   8
ENDBRANCH   6   7
ENDBRANCH   5   6
ENDBRANCH   4   5
ENDBRANCH   3   4
ENDBRANCH   2   3
ENDBRANCH   1   2
BRANCH   1  18
ATOM     18  C   UNL     1      -8.749  13.609 -18.662  1.00  0.00     0.000 C 
BRANCH  18  19
ATOM     19  C   UNL     1      -8.845  14.127 -20.108  1.00  0.00     0.000 C 
BRANCH  19  20
ATOM     20  C   UNL     1      -8.571  13.014 -21.137  1.00  0.00     0.000 C 
BRANCH  20  21
ATOM     21  C   UNL     1      -7.455  13.377 -22.137  1.00  0.00     0.000 C 
BRANCH  21  22
ATOM     22  C   UNL     1      -6.869  12.171 -22.897  1.00  0.00     0.000 C 
BRANCH  22  23
ATOM     23  C   UNL     1      -6.998  12.222 -24.431  1.00  0.00     0.000 C 
BRANCH  23  24
ATOM     24  C   UNL     1      -5.793  12.835 -25.167  1.00  0.00    -0.000 C 
BRANCH  24  25
ATOM     25  C   UNL     1      -6.199  13.943 -26.152  1.00  0.00    -0.000 C 
BRANCH  25  26
ATOM     26  C   UNL     1      -5.009  14.810 -26.603  1.00  0.00    -0.000 C 
BRANCH  26  27
ATOM     27  C   UNL     1      -4.552  15.874 -25.586  1.00  0.00    -0.000 C 
BRANCH  27  28
ATOM     28  C   UNL     1      -4.670  17.311 -26.123  1.00  0.00    -0.000 C 
BRANCH  28  29
ATOM     29  C   UNL     1      -6.091  17.889 -25.984  1.00  0.00    -0.000 C 
BRANCH  29  30
ATOM     30  C   UNL     1      -6.265  18.953 -24.881  1.00  0.00    -0.000 C 
BRANCH  30  31
ATOM     31  C   UNL     1      -5.428  18.720 -23.611  1.00  0.00    -0.003 C 
ATOM     32  C   UNL     1      -5.923  17.538 -22.777  1.00  0.00     0.004 C 
ENDBRANCH  30  31
ENDBRANCH  29  30
ENDBRANCH  28  29
ENDBRANCH  27  28
ENDBRANCH  26  27
ENDBRANCH  25  26
ENDBRANCH  24  25
ENDBRANCH  23  24
ENDBRANCH  22  23
ENDBRANCH  21  22
ENDBRANCH  20  21
ENDBRANCH  19  20
ENDBRANCH  18  19
ENDBRANCH   1  18
TORSDOF 28
ENDMDL
MODEL 4
REMARK VINA RESULT:    31.265      4.696      8.347
REMARK INTER + INTRA:          81.475
REMARK INTER:                  81.704
REMARK INTRA:                  -0.230
REMARK UNBOUND:                -0.966
REMARK SMILES CCCCCCCCCCCCCCCCCCCCCCCCCCCCCC(=O)[O-]
REMARK SMILES IDX 16 1 17 2 18 3 19 4 20 5 21 6 22 7 23 8 24 9 25 10 26 11
REMARK SMILES IDX 27 12 28 13 29 14 30 15 31 16 32 17 15 18 14 19 13 20 12 21
REMARK SMILES IDX 11 22 10 23 9 24 8 25 7 26 6 27 5 28 4 29 3 30 2 31 1 32
REMARK H PARENT
REMARK Flexibility Score: inf
ROOT
ATOM      1  C   UNL     1      -9.828  16.289 -18.683  1.00  0.00     0.000 C 
ENDROOT
BRANCH   1   2
ATOM      2  C   UNL     1      -9.990  17.619 -17.937  1.00  0.00     0.000 C 
BRANCH   2   3
ATOM      3  C   UNL     1      -9.022  17.701 -16.746  1.00  0.00     0.000 C 
BRANCH   3   4
ATOM      4  C   UNL     1      -8.736  19.147 -16.298  1.00  0.00     0.000 C 
BRANCH   4   5
ATOM      5  C   UNL     1      -7.277  19.402 -15.878  1.00  0.00     0.000 C 
BRANCH   5   6
ATOM      6  C   UNL     1      -7.142  19.875 -14.426  1.00  0.00     0.000 C 
BRANCH   6   7
ATOM      7  C   UNL     1      -8.358  19.449 -13.589  1.00  0.00     0.000 C 
BRANCH   7   8
ATOM      8  C   UNL     1      -9.165  20.650 -13.067  1.00  0.00     0.000 C 
BRANCH   8   9
ATOM      9  C   UNL     1     -10.471  20.863 -13.848  1.00  0.00     0.000 C 
BRANCH   9  10
ATOM     10  C   UNL     1     -11.572  21.430 -12.939  1.00  0.00     0.000 C 
BRANCH  10  11
ATOM     11  C   UNL     1     -11.022  22.411 -11.888  1.00  0.00     0.000 C 
BRANCH  11  12
ATOM     12  C   UNL     1      -9.569  22.823 -12.177  1.00  0.00     0.000 C 
BRANCH  12  13
ATOM     13  C   UNL     1      -8.980  23.751 -11.097  1.00  0.00     0.006 C 
BRANCH  13  14
ATOM     14  C   UNL     1      -9.973  24.797 -10.560  1.00  0.00     0.053 C 
BRANCH  14  15
ATOM     15  C   UNL     1      -9.618  26.192 -10.966  1.00  0.00     0.041 C 
ATOM     16  O   UNL     1     -10.208  26.741 -11.932  1.00  0.00    -0.550 OA
ATOM     17  O   UNL     1      -8.617  26.881 -10.290  1.00  0.00    -0.550 OA
ENDBRANCH  14  15
ENDBRANCH  13  14
ENDBRANCH  12  13
ENDBRANCH  11  12
ENDBRANCH  10  11
ENDBRANCH   9  10
ENDBRANCH   8   9
ENDBRANCH   7   8
ENDBRANCH   6   7
ENDBRANCH   5   6
ENDBRANCH   4   5
ENDBRANCH   3   4
ENDBRANCH   2   3
ENDBRANCH   1   2
BRANCH   1  18
ATOM     18  C   UNL     1      -9.499  15.143 -17.714  1.00  0.00     0.000 C 
BRANCH  18  19
ATOM     19  C   UNL     1      -8.664  14.041 -18.389  1.00  0.00     0.000 C 
BRANCH  19  20
ATOM     20  C   UNL     1      -9.129  13.768 -19.831  1.00  0.00     0.000 C 
BRANCH  20  21
ATOM     21  C   UNL     1      -8.011  13.961 -20.874  1.00  0.00     0.000 C 
BRANCH  21  22
ATOM     22  C   UNL     1      -8.035  12.937 -22.026  1.00  0.00     0.000 C 
BRANCH  22  23
ATOM     23  C   UNL     1      -6.702  12.744 -22.775  1.00  0.00     0.000 C 
BRANCH  23  24
ATOM     24  C   UNL     1      -6.812  12.006 -24.122  1.00  0.00    -0.000 C 
BRANCH  24  25
ATOM     25  C   UNL     1      -6.646  12.944 -25.329  1.00  0.00    -0.000 C 
BRANCH  25  26
ATOM     26  C   UNL     1      -5.694  14.121 -25.046  1.00  0.00    -0.000 C 
BRANCH  26  27
ATOM     27  C   UNL     1      -4.691  14.437 -26.171  1.00  0.00    -0.000 C 
BRANCH  27  28
ATOM     28  C   UNL     1      -4.788  15.888 -26.675  1.00  0.00    -0.000 C 
BRANCH  28  29
ATOM     29  C   UNL     1      -5.849  16.714 -25.924  1.00  0.00    -0.000 C 
BRANCH  29  30
ATOM     30  C   UNL     1      -5.525  18.214 -25.765  1.00  0.00    -0.000 C 
BRANCH  30  31
ATOM     31  C   UNL     1      -5.673  18.766 -24.336  1.00  0.00    -0.003 C 
ATOM     32  C   UNL     1      -5.297  17.747 -23.261  1.00  0.00     0.004 C 
ENDBRANCH  30  31
ENDBRANCH  29  30
ENDBRANCH  28  29
ENDBRANCH  27  28
ENDBRANCH  26  27
ENDBRANCH  25  26
ENDBRANCH  24  25
ENDBRANCH  23  24
ENDBRANCH  22  23
ENDBRANCH  21  22
ENDBRANCH  20  21
ENDBRANCH  19  20
ENDBRANCH  18  19
ENDBRANCH   1  18
TORSDOF 28
ENDMDL
MODEL 5
REMARK VINA RESULT:    31.574      3.997     12.938
REMARK INTER + INTRA:          82.290
REMARK INTER:                  83.971
REMARK INTRA:                  -1.681
REMARK UNBOUND:                -0.966
REMARK SMILES CCCCCCCCCCCCCCCCCCCCCCCCCCCCCC(=O)[O-]
REMARK SMILES IDX 16 1 17 2 18 3 19 4 20 5 21 6 22 7 23 8 24 9 25 10 26 11
REMARK SMILES IDX 27 12 28 13 29 14 30 15 31 16 32 17 15 18 14 19 13 20 12 21
REMARK SMILES IDX 11 22 10 23 9 24 8 25 7 26 6 27 5 28 4 29 3 30 2 31 1 32
REMARK H PARENT
REMARK Flexibility Score: inf
ROOT
ATOM      1  C   UNL     1      -8.726  13.266 -20.840  1.00  0.00     0.000 C 
ENDROOT
BRANCH   1   2
ATOM      2  C   UNL     1      -7.886  13.564 -22.088  1.00  0.00     0.000 C 
BRANCH   2   3
ATOM      3  C   UNL     1      -7.072  12.329 -22.506  1.00  0.00     0.000 C 
BRANCH   3   4
ATOM      4  C   UNL     1      -6.313  12.527 -23.833  1.00  0.00     0.000 C 
BRANCH   4   5
ATOM      5  C   UNL     1      -6.426  11.342 -24.809  1.00  0.00     0.000 C 
BRANCH   5   6
ATOM      6  C   UNL     1      -5.856  10.037 -24.240  1.00  0.00     0.000 C 
BRANCH   6   7
ATOM      7  C   UNL     1      -4.338   9.953 -24.460  1.00  0.00     0.000 C 
BRANCH   7   8
ATOM      8  C   UNL     1      -3.886   8.562 -24.934  1.00  0.00     0.000 C 
BRANCH   8   9
ATOM      9  C   UNL     1      -2.562   8.123 -24.289  1.00  0.00     0.000 C 
BRANCH   9  10
ATOM     10  C   UNL     1      -1.623   9.322 -24.086  1.00  0.00     0.000 C 
BRANCH  10  11
ATOM     11  C   UNL     1      -0.994   9.347 -22.681  1.00  0.00     0.000 C 
BRANCH  11  12
ATOM     12  C   UNL     1      -0.490   7.963 -22.240  1.00  0.00     0.000 C 
BRANCH  12  13
ATOM     13  C   UNL     1      -1.038   7.532 -20.867  1.00  0.00     0.006 C 
BRANCH  13  14
ATOM     14  C   UNL     1      -2.574   7.539 -20.774  1.00  0.00     0.053 C 
BRANCH  14  15
ATOM     15  C   UNL     1      -3.071   8.085 -19.472  1.00  0.00     0.041 C 
ATOM     16  O   UNL     1      -4.185   7.719 -19.016  1.00  0.00    -0.550 OA
ATOM     17  O   UNL     1      -2.313   9.016 -18.773  1.00  0.00    -0.550 OA
ENDBRANCH  14  15
ENDBRANCH  13  14
ENDBRANCH  12  13
ENDBRANCH  11  12
ENDBRANCH  10  11
ENDBRANCH   9  10
ENDBRANCH   8   9
ENDBRANCH   7   8
ENDBRANCH   6   7
ENDBRANCH   5   6
ENDBRANCH   4   5
ENDBRANCH   3   4
ENDBRANCH   2   3
ENDBRANCH   1   2
BRANCH   1  18
ATOM     18  C   UNL     1      -8.689  14.440 -19.849  1.00  0.00     0.000 C 
BRANCH  18  19
ATOM     19  C   UNL     1      -9.008  13.990 -18.413  1.00  0.00     0.000 C 
BRANCH  19  20
ATOM     20  C   UNL     1      -9.494  15.159 -17.537  1.00  0.00     0.000 C 
BRANCH  20  21
ATOM     21  C   UNL     1      -9.962  16.377 -18.359  1.00  0.00     0.000 C 
BRANCH  21  22
ATOM     22  C   UNL     1      -9.609  17.739 -17.731  1.00  0.00     0.000 C 
BRANCH  22  23
ATOM     23  C   UNL     1      -8.444  17.728 -16.723  1.00  0.00     0.000 C 
BRANCH  23  24
ATOM     24  C   UNL     1      -7.794  19.100 -16.462  1.00  0.00    -0.000 C 
BRANCH  24  25
ATOM     25  C   UNL     1      -7.975  19.576 -15.011  1.00  0.00    -0.000 C 
BRANCH  25  26
ATOM     26  C   UNL     1      -9.422  19.997 -14.695  1.00  0.00    -0.000 C 
BRANCH  26  27
ATOM     27  C   UNL     1      -9.739  20.180 -13.199  1.00  0.00    -0.000 C 
BRANCH  27  28
ATOM     28  C   UNL     1     -11.082  20.887 -12.948  1.00  0.00    -0.000 C 
BRANCH  28  29
ATOM     29  C   UNL     1     -10.952  22.421 -12.892  1.00  0.00    -0.000 C 
BRANCH  29  30
ATOM     30  C   UNL     1      -9.740  22.951 -12.100  1.00  0.00    -0.000 C 
BRANCH  30  31
ATOM     31  C   UNL     1     -10.008  24.212 -11.260  1.00  0.00    -0.003 C 
ATOM     32  C   UNL     1      -9.383  24.146  -9.867  1.00  0.00     0.004 C 
ENDBRANCH  30  31
ENDBRANCH  29  30
ENDBRANCH  28  29
ENDBRANCH  27  28
ENDBRANCH  26  27
ENDBRANCH  25  26
ENDBRANCH  24  25
ENDBRANCH  23  24
ENDBRANCH  22  23
ENDBRANCH  21  22
ENDBRANCH  20  21
ENDBRANCH  19  20
ENDBRANCH  18  19
ENDBRANCH   1  18
TORSDOF 28
ENDMDL
MODEL 6
REMARK VINA RESULT:    31.610      2.908      6.081
REMARK INTER + INTRA:          82.385
REMARK INTER:                  83.048
REMARK INTRA:                  -0.662
REMARK UNBOUND:                -0.966
REMARK SMILES CCCCCCCCCCCCCCCCCCCCCCCCCCCCCC(=O)[O-]
REMARK SMILES IDX 16 1 17 2 18 3 19 4 20 5 21 6 22 7 23 8 24 9 25 10 26 11
REMARK SMILES IDX 27 12 28 13 29 14 30 15 31 16 32 17 15 18 14 19 13 20 12 21
REMARK SMILES IDX 11 22 10 23 9 24 8 25 7 26 6 27 5 28 4 29 3 30 2 31 1 32
REMARK H PARENT
REMARK Flexibility Score: inf
ROOT
ATOM      1  C   UNL     1      -9.824  14.943 -17.585  1.00  0.00     0.000 C 
ENDROOT
BRANCH   1   2
ATOM      2  C   UNL     1      -9.840  16.145 -18.538  1.00  0.00     0.000 C 
BRANCH   2   3
ATOM      3  C   UNL     1     -10.106  17.450 -17.770  1.00  0.00     0.000 C 
BRANCH   3   4
ATOM      4  C   UNL     1      -8.864  17.974 -17.022  1.00  0.00     0.000 C 
BRANCH   4   5
ATOM      5  C   UNL     1      -8.679  19.500 -17.097  1.00  0.00     0.000 C 
BRANCH   5   6
ATOM      6  C   UNL     1      -8.054  20.094 -15.828  1.00  0.00     0.000 C 
BRANCH   6   7
ATOM      7  C   UNL     1      -7.226  19.043 -15.074  1.00  0.00     0.000 C 
BRANCH   7   8
ATOM      8  C   UNL     1      -7.115  19.347 -13.570  1.00  0.00     0.000 C 
BRANCH   8   9
ATOM      9  C   UNL     1      -8.465  19.222 -12.846  1.00  0.00     0.000 C 
BRANCH   9  10
ATOM     10  C   UNL     1      -9.605  19.798 -13.699  1.00  0.00     0.000 C 
BRANCH  10  11
ATOM     11  C   UNL     1     -10.673  20.513 -12.852  1.00  0.00     0.000 C 
BRANCH  11  12
ATOM     12  C   UNL     1     -10.584  22.044 -12.969  1.00  0.00     0.000 C 
BRANCH  12  13
ATOM     13  C   UNL     1      -9.403  22.640 -12.179  1.00  0.00     0.006 C 
BRANCH  13  14
ATOM     14  C   UNL     1      -9.580  24.123 -11.811  1.00  0.00     0.053 C 
BRANCH  14  15
ATOM     15  C   UNL     1      -9.599  24.353 -10.332  1.00  0.00     0.041 C 
ATOM     16  O   UNL     1      -9.969  25.462  -9.868  1.00  0.00    -0.550 OA
ATOM     17  O   UNL     1      -9.186  23.347  -9.466  1.00  0.00    -0.550 OA
ENDBRANCH  14  15
ENDBRANCH  13  14
ENDBRANCH  12  13
ENDBRANCH  11  12
ENDBRANCH  10  11
ENDBRANCH   9  10
ENDBRANCH   8   9
ENDBRANCH   7   8
ENDBRANCH   6   7
ENDBRANCH   5   6
ENDBRANCH   4   5
ENDBRANCH   3   4
ENDBRANCH   2   3
ENDBRANCH   1   2
BRANCH   1  18
ATOM     18  C   UNL     1      -9.298  13.681 -18.285  1.00  0.00     0.000 C 
BRANCH  18  19
ATOM     19  C   UNL     1      -8.311  14.021 -19.415  1.00  0.00     0.000 C 
BRANCH  19  20
ATOM     20  C   UNL     1      -8.574  13.184 -20.681  1.00  0.00     0.000 C 
BRANCH  20  21
ATOM     21  C   UNL     1      -7.505  13.386 -21.773  1.00  0.00     0.000 C 
BRANCH  21  22
ATOM     22  C   UNL     1      -7.471  12.275 -22.840  1.00  0.00     0.000 C 
BRANCH  22  23
ATOM     23  C   UNL     1      -6.255  12.295 -23.786  1.00  0.00     0.000 C 
BRANCH  23  24
ATOM     24  C   UNL     1      -6.328  11.305 -24.964  1.00  0.00    -0.000 C 
BRANCH  24  25
ATOM     25  C   UNL     1      -5.968   9.867 -24.555  1.00  0.00    -0.000 C 
BRANCH  25  26
ATOM     26  C   UNL     1      -4.631   9.392 -25.153  1.00  0.00    -0.000 C 
BRANCH  26  27
ATOM     27  C   UNL     1      -3.652   8.759 -24.146  1.00  0.00    -0.000 C 
BRANCH  27  28
ATOM     28  C   UNL     1      -2.178   8.917 -24.557  1.00  0.00    -0.000 C 
BRANCH  28  29
ATOM     29  C   UNL     1      -1.223   8.994 -23.351  1.00  0.00    -0.000 C 
BRANCH  29  30
ATOM     30  C   UNL     1      -1.177   7.732 -22.465  1.00  0.00    -0.000 C 
BRANCH  30  31
ATOM     31  C   UNL     1      -1.599   7.945 -21.001  1.00  0.00    -0.003 C 
ATOM     32  C   UNL     1      -2.883   7.200 -20.635  1.00  0.00     0.004 C 
ENDBRANCH  30  31
ENDBRANCH  29  30
ENDBRANCH  28  29
ENDBRANCH  27  28
ENDBRANCH  26  27
ENDBRANCH  25  26
ENDBRANCH  24  25
ENDBRANCH  23  24
ENDBRANCH  22  23
ENDBRANCH  21  22
ENDBRANCH  20  21
ENDBRANCH  19  20
ENDBRANCH  18  19
ENDBRANCH   1  18
TORSDOF 28
ENDMDL
MODEL 7
REMARK VINA RESULT:    31.672      1.439      2.925
REMARK INTER + INTRA:          82.549
REMARK INTER:                  82.869
REMARK INTRA:                  -0.320
REMARK UNBOUND:                -0.966
REMARK SMILES CCCCCCCCCCCCCCCCCCCCCCCCCCCCCC(=O)[O-]
REMARK SMILES IDX 16 1 17 2 18 3 19 4 20 5 21 6 22 7 23 8 24 9 25 10 26 11
REMARK SMILES IDX 27 12 28 13 29 14 30 15 31 16 32 17 15 18 14 19 13 20 12 21
REMARK SMILES IDX 11 22 10 23 9 24 8 25 7 26 6 27 5 28 4 29 3 30 2 31 1 32
REMARK H PARENT
REMARK Flexibility Score: inf
ROOT
ATOM      1  C   UNL     1      -8.823  12.808 -21.378  1.00  0.00     0.000 C 
ENDROOT
BRANCH   1   2
ATOM      2  C   UNL     1      -9.325  14.131 -20.788  1.00  0.00     0.000 C 
BRANCH   2   3
ATOM      3  C   UNL     1      -8.476  14.547 -19.576  1.00  0.00     0.000 C 
BRANCH   3   4
ATOM      4  C   UNL     1      -8.483  13.499 -18.446  1.00  0.00     0.000 C 
BRANCH   4   5
ATOM      5  C   UNL     1      -9.861  12.869 -18.178  1.00  0.00     0.000 C 
BRANCH   5   6
ATOM      6  C   UNL     1     -10.574  13.476 -16.962  1.00  0.00     0.000 C 
BRANCH   6   7
ATOM      7  C   UNL     1      -9.983  14.847 -16.601  1.00  0.00     0.000 C 
BRANCH   7   8
ATOM      8  C   UNL     1     -10.221  15.900 -17.696  1.00  0.00     0.000 C 
BRANCH   8   9
ATOM      9  C   UNL     1      -9.258  17.092 -17.583  1.00  0.00     0.000 C 
BRANCH   9  10
ATOM     10  C   UNL     1     -10.025  18.423 -17.563  1.00  0.00     0.000 C 
BRANCH  10  11
ATOM     11  C   UNL     1      -9.422  19.437 -16.575  1.00  0.00     0.000 C 
BRANCH  11  12
ATOM     12  C   UNL     1      -7.895  19.301 -16.457  1.00  0.00     0.000 C 
BRANCH  12  13
ATOM     13  C   UNL     1      -7.402  19.295 -14.997  1.00  0.00     0.006 C 
BRANCH  13  14
ATOM     14  C   UNL     1      -8.053  20.372 -14.112  1.00  0.00     0.053 C 
BRANCH  14  15
ATOM     15  C   UNL     1      -9.285  19.882 -13.419  1.00  0.00     0.041 C 
ATOM     16  O   UNL     1     -10.330  20.583 -13.414  1.00  0.00    -0.550 OA
ATOM     17  O   UNL     1      -9.274  18.659 -12.760  1.00  0.00    -0.550 OA
ENDBRANCH  14  15
ENDBRANCH  13  14
ENDBRANCH  12  13
ENDBRANCH  11  12
ENDBRANCH  10  11
ENDBRANCH   9  10
ENDBRANCH   8   9
ENDBRANCH   7   8
ENDBRANCH   6   7
ENDBRANCH   5   6
ENDBRANCH   4   5
ENDBRANCH   3   4
ENDBRANCH   2   3
ENDBRANCH   1   2
BRANCH   1  18
ATOM     18  C   UNL     1      -7.447  12.978 -22.040  1.00  0.00     0.000 C 
BRANCH  18  19
ATOM     19  C   UNL     1      -7.145  11.847 -23.037  1.00  0.00     0.000 C 
BRANCH  19  20
ATOM     20  C   UNL     1      -6.467  12.372 -24.317  1.00  0.00     0.000 C 
BRANCH  20  21
ATOM     21  C   UNL     1      -5.481  11.362 -24.937  1.00  0.00     0.000 C 
BRANCH  21  22
ATOM     22  C   UNL     1      -5.927   9.891 -24.826  1.00  0.00     0.000 C 
BRANCH  22  23
ATOM     23  C   UNL     1      -4.952   8.951 -24.090  1.00  0.00     0.000 C 
BRANCH  23  24
ATOM     24  C   UNL     1      -3.646   8.644 -24.846  1.00  0.00    -0.000 C 
BRANCH  24  25
ATOM     25  C   UNL     1      -2.570   9.722 -24.636  1.00  0.00    -0.000 C 
BRANCH  25  26
ATOM     26  C   UNL     1      -1.174   9.131 -24.367  1.00  0.00    -0.000 C 
BRANCH  26  27
ATOM     27  C   UNL     1      -1.131   8.011 -23.310  1.00  0.00    -0.000 C 
BRANCH  27  28
ATOM     28  C   UNL     1      -0.662   8.502 -21.930  1.00  0.00    -0.000 C 
BRANCH  28  29
ATOM     29  C   UNL     1      -1.386   7.800 -20.765  1.00  0.00    -0.000 C 
BRANCH  29  30
ATOM     30  C   UNL     1      -2.799   7.275 -21.088  1.00  0.00    -0.000 C 
BRANCH  30  31
ATOM     31  C   UNL     1      -3.820   7.398 -19.943  1.00  0.00    -0.003 C 
ATOM     32  C   UNL     1      -3.197   7.896 -18.639  1.00  0.00     0.004 C 
ENDBRANCH  30  31
ENDBRANCH  29  30
ENDBRANCH  28  29
ENDBRANCH  27  28
ENDBRANCH  26  27
ENDBRANCH  25  26
ENDBRANCH  24  25
ENDBRANCH  23  24
ENDBRANCH  22  23
ENDBRANCH  21  22
ENDBRANCH  20  21
ENDBRANCH  19  20
ENDBRANCH  18  19
ENDBRANCH   1  18
TORSDOF 28
ENDMDL
MODEL 8
REMARK VINA RESULT:    31.990      5.008     13.921
REMARK INTER + INTRA:          83.386
REMARK INTER:                  84.060
REMARK INTRA:                  -0.674
REMARK UNBOUND:                -0.966
REMARK SMILES CCCCCCCCCCCCCCCCCCCCCCCCCCCCCC(=O)[O-]
REMARK SMILES IDX 16 1 17 2 18 3 19 4 20 5 21 6 22 7 23 8 24 9 25 10 26 11
REMARK SMILES IDX 27 12 28 13 29 14 30 15 31 16 32 17 15 18 14 19 13 20 12 21
REMARK SMILES IDX 11 22 10 23 9 24 8 25 7 26 6 27 5 28 4 29 3 30 2 31 1 32
REMARK H PARENT
REMARK Flexibility Score: inf
ROOT
ATOM      1  C   UNL     1     -10.262  15.710 -17.578  1.00  0.00     0.000 C 
ENDROOT
BRANCH   1   2
ATOM      2  C   UNL     1      -9.316  14.631 -17.038  1.00  0.00     0.000 C 
BRANCH   2   3
ATOM      3  C   UNL     1      -9.010  13.580 -18.118  1.00  0.00     0.000 C 
BRANCH   3   4
ATOM      4  C   UNL     1      -8.414  14.191 -19.402  1.00  0.00     0.000 C 
BRANCH   4   5
ATOM      5  C   UNL     1      -8.741  13.406 -20.685  1.00  0.00     0.000 C 
BRANCH   5   6
ATOM      6  C   UNL     1      -7.727  13.642 -21.811  1.00  0.00     0.000 C 
BRANCH   6   7
ATOM      7  C   UNL     1      -7.564  12.387 -22.682  1.00  0.00     0.000 C 
BRANCH   7   8
ATOM      8  C   UNL     1      -6.336  12.464 -23.605  1.00  0.00     0.000 C 
BRANCH   8   9
ATOM      9  C   UNL     1      -6.674  12.113 -25.062  1.00  0.00     0.000 C 
BRANCH   9  10
ATOM     10  C   UNL     1      -6.508  10.608 -25.321  1.00  0.00     0.000 C 
BRANCH  10  11
ATOM     11  C   UNL     1      -5.368   9.989 -24.492  1.00  0.00     0.000 C 
BRANCH  11  12
ATOM     12  C   UNL     1      -4.309   9.305 -25.372  1.00  0.00     0.000 C 
BRANCH  12  13
ATOM     13  C   UNL     1      -3.607   8.130 -24.666  1.00  0.00     0.006 C 
BRANCH  13  14
ATOM     14  C   UNL     1      -2.640   8.558 -23.548  1.00  0.00     0.053 C 
BRANCH  14  15
ATOM     15  C   UNL     1      -1.218   8.629 -24.011  1.00  0.00     0.041 C 
ATOM     16  O   UNL     1      -0.306   8.078 -23.342  1.00  0.00    -0.550 OA
ATOM     17  O   UNL     1      -0.897   9.324 -25.171  1.00  0.00    -0.550 OA
ENDBRANCH  14  15
ENDBRANCH  13  14
ENDBRANCH  12  13
ENDBRANCH  11  12
ENDBRANCH  10  11
ENDBRANCH   9  10
ENDBRANCH   8   9
ENDBRANCH   7   8
ENDBRANCH   6   7
ENDBRANCH   5   6
ENDBRANCH   4   5
ENDBRANCH   3   4
ENDBRANCH   2   3
ENDBRANCH   1   2
BRANCH   1  18
ATOM     18  C   UNL     1      -9.490  16.972 -17.995  1.00  0.00     0.000 C 
BRANCH  18  19
ATOM     19  C   UNL     1     -10.275  18.256 -17.678  1.00  0.00     0.000 C 
BRANCH  19  20
ATOM     20  C   UNL     1      -9.443  19.248 -16.844  1.00  0.00     0.000 C 
BRANCH  20  21
ATOM     21  C   UNL     1      -8.008  18.755 -16.572  1.00  0.00     0.000 C 
BRANCH  21  22
ATOM     22  C   UNL     1      -7.026  19.864 -16.147  1.00  0.00     0.000 C 
BRANCH  22  23
ATOM     23  C   UNL     1      -6.683  19.914 -14.646  1.00  0.00     0.000 C 
BRANCH  23  24
ATOM     24  C   UNL     1      -7.865  19.641 -13.698  1.00  0.00    -0.000 C 
BRANCH  24  25
ATOM     25  C   UNL     1      -8.575  20.927 -13.246  1.00  0.00    -0.000 C 
BRANCH  25  26
ATOM     26  C   UNL     1     -10.091  20.900 -13.512  1.00  0.00    -0.000 C 
BRANCH  26  27
ATOM     27  C   UNL     1     -10.946  21.693 -12.505  1.00  0.00    -0.000 C 
BRANCH  27  28
ATOM     28  C   UNL     1     -10.442  23.130 -12.286  1.00  0.00    -0.000 C 
BRANCH  28  29
ATOM     29  C   UNL     1      -9.460  23.249 -11.105  1.00  0.00    -0.000 C 
BRANCH  29  30
ATOM     30  C   UNL     1      -9.827  24.307 -10.046  1.00  0.00    -0.000 C 
BRANCH  30  31
ATOM     31  C   UNL     1      -9.521  25.762 -10.442  1.00  0.00    -0.003 C 
ATOM     32  C   UNL     1      -9.750  26.037 -11.929  1.00  0.00     0.004 C 
ENDBRANCH  30  31
ENDBRANCH  29  30
ENDBRANCH  28  29
ENDBRANCH  27  28
ENDBRANCH  26  27
ENDBRANCH  25  26
ENDBRANCH  24  25
ENDBRANCH  23  24
ENDBRANCH  22  23
ENDBRANCH  21  22
ENDBRANCH  20  21
ENDBRANCH  19  20
ENDBRANCH  18  19
ENDBRANCH   1  18
TORSDOF 28
ENDMDL
MODEL 9
REMARK VINA RESULT:    32.231      4.274      6.590
REMARK INTER + INTRA:          84.022
REMARK INTER:                  84.870
REMARK INTRA:                  -0.848
REMARK UNBOUND:                -0.966
REMARK SMILES CCCCCCCCCCCCCCCCCCCCCCCCCCCCCC(=O)[O-]
REMARK SMILES IDX 16 1 17 2 18 3 19 4 20 5 21 6 22 7 23 8 24 9 25 10 26 11
REMARK SMILES IDX 27 12 28 13 29 14 30 15 31 16 32 17 15 18 14 19 13 20 12 21
REMARK SMILES IDX 11 22 10 23 9 24 8 25 7 26 6 27 5 28 4 29 3 30 2 31 1 32
REMARK H PARENT
REMARK Flexibility Score: inf
ROOT
ATOM      1  C   UNL     1      -8.585  14.742 -19.466  1.00  0.00     0.000 C 
ENDROOT
BRANCH   1   2
ATOM      2  C   UNL     1      -8.499  13.576 -18.474  1.00  0.00     0.000 C 
BRANCH   2   3
ATOM      3  C   UNL     1      -9.842  13.368 -17.756  1.00  0.00     0.000 C 
BRANCH   3   4
ATOM      4  C   UNL     1      -9.996  14.246 -16.498  1.00  0.00     0.000 C 
BRANCH   4   5
ATOM      5  C   UNL     1      -9.862  13.477 -15.171  1.00  0.00     0.000 C 
BRANCH   5   6
ATOM      6  C   UNL     1      -8.770  14.042 -14.255  1.00  0.00     0.000 C 
BRANCH   6   7
ATOM      7  C   UNL     1      -8.304  12.991 -13.236  1.00  0.00     0.000 C 
BRANCH   7   8
ATOM      8  C   UNL     1      -9.234  12.900 -12.014  1.00  0.00     0.000 C 
BRANCH   8   9
ATOM      9  C   UNL     1     -10.402  13.896 -12.090  1.00  0.00     0.000 C 
BRANCH   9  10
ATOM     10  C   UNL     1     -11.735  13.210 -11.757  1.00  0.00     0.000 C 
BRANCH  10  11
ATOM     11  C   UNL     1     -11.815  12.758 -10.287  1.00  0.00     0.000 C 
BRANCH  11  12
ATOM     12  C   UNL     1     -11.525  11.257 -10.121  1.00  0.00     0.000 C 
BRANCH  12  13
ATOM     13  C   UNL     1     -11.844  10.438 -11.386  1.00  0.00     0.006 C 
BRANCH  13  14
ATOM     14  C   UNL     1     -10.765   9.404 -11.754  1.00  0.00     0.053 C 
BRANCH  14  15
ATOM     15  C   UNL     1     -10.346   9.493 -13.188  1.00  0.00     0.041 C 
ATOM     16  O   UNL     1      -9.563  10.403 -13.564  1.00  0.00    -0.550 OA
ATOM     17  O   UNL     1     -10.838   8.581 -14.114  1.00  0.00    -0.550 OA
ENDBRANCH  14  15
ENDBRANCH  13  14
ENDBRANCH  12  13
ENDBRANCH  11  12
ENDBRANCH  10  11
ENDBRANCH   9  10
ENDBRANCH   8   9
ENDBRANCH   7   8
ENDBRANCH   6   7
ENDBRANCH   5   6
ENDBRANCH   4   5
ENDBRANCH   3   4
ENDBRANCH   2   3
ENDBRANCH   1   2
BRANCH   1  18
ATOM     18  C   UNL     1      -8.392  14.261 -20.912  1.00  0.00     0.000 C 
BRANCH  18  19
ATOM     19  C   UNL     1      -9.034  12.883 -21.150  1.00  0.00     0.000 C 
BRANCH  19  20
ATOM     20  C   UNL     1      -8.220  12.032 -22.142  1.00  0.00     0.000 C 
BRANCH  20  21
ATOM     21  C   UNL     1      -6.955  12.747 -22.657  1.00  0.00     0.000 C 
BRANCH  21  22
ATOM     22  C   UNL     1      -6.455  12.244 -24.025  1.00  0.00     0.000 C 
BRANCH  22  23
ATOM     23  C   UNL     1      -6.341  10.715 -24.174  1.00  0.00     0.000 C 
BRANCH  23  24
ATOM     24  C   UNL     1      -5.156  10.229 -25.028  1.00  0.00    -0.000 C 
BRANCH  24  25
ATOM     25  C   UNL     1      -4.508   8.950 -24.473  1.00  0.00    -0.000 C 
BRANCH  25  26
ATOM     26  C   UNL     1      -2.976   8.939 -24.627  1.00  0.00    -0.000 C 
BRANCH  26  27
ATOM     27  C   UNL     1      -2.230   7.972 -23.687  1.00  0.00    -0.000 C 
BRANCH  27  28
ATOM     28  C   UNL     1      -1.232   8.684 -22.757  1.00  0.00    -0.000 C 
BRANCH  28  29
ATOM     29  C   UNL     1      -1.224   8.104 -21.330  1.00  0.00    -0.000 C 
BRANCH  29  30
ATOM     30  C   UNL     1      -2.421   7.198 -20.979  1.00  0.00    -0.000 C 
BRANCH  30  31
ATOM     31  C   UNL     1      -2.800   7.162 -19.488  1.00  0.00    -0.003 C 
ATOM     32  C   UNL     1      -4.048   7.985 -19.169  1.00  0.00     0.004 C 
ENDBRANCH  30  31
ENDBRANCH  29  30
ENDBRANCH  28  29
ENDBRANCH  27  28
ENDBRANCH  26  27
ENDBRANCH  25  26
ENDBRANCH  24  25
ENDBRANCH  23  24
ENDBRANCH  22  23
ENDBRANCH  21  22
ENDBRANCH  20  21
ENDBRANCH  19  20
ENDBRANCH  18  19
ENDBRANCH   1  18
TORSDOF 28
ENDMDL
