MODEL 1
REMARK VINA RESULT:    -5.274      0.000      0.000
REMARK INTER + INTRA:          -6.517
REMARK INTER:                  -6.199
REMARK INTRA:                  -0.318
REMARK UNBOUND:                -0.318
REMARK SMILES O=c1cc(-c2ccc(O)c(O)c2)oc2cc(O)cc(O)c12
REMARK SMILES IDX 4 1 3 2 2 3 1 4 21 5 19 6 18 7 16 8 15 9 14 10 13 11 5 12
REMARK SMILES IDX 6 13 7 14 8 15 12 16 10 17 9 18 11 20 20 22 17 24
REMARK H PARENT 9 19 11 21 20 23 17 25
REMARK Flexibility Score: inf
ROOT
ATOM      1  C   UNL     1      18.362  36.793  29.619  1.00  0.00     0.138 A 
ATOM      2  C   UNL     1      19.247  37.552  30.397  1.00  0.00     0.100 A 
ATOM      3  C   UNL     1      19.531  38.869  30.033  1.00  0.00     0.197 A 
ATOM      4  O   UNL     1      20.376  39.504  30.714  1.00  0.00    -0.289 OA
ATOM      5  C   UNL     1      18.900  39.437  28.900  1.00  0.00     0.107 A 
ATOM      6  C   UNL     1      19.081  40.780  28.457  1.00  0.00     0.134 A 
ATOM      7  C   UNL     1      18.494  41.197  27.256  1.00  0.00     0.093 A 
ATOM      8  C   UNL     1      17.685  40.338  26.513  1.00  0.00     0.123 A 
ATOM      9  C   UNL     1      17.457  39.037  26.965  1.00  0.00     0.094 A 
ATOM     10  C   UNL     1      18.056  38.581  28.142  1.00  0.00     0.146 A 
ATOM     11  O   UNL     1      17.824  37.332  28.530  1.00  0.00    -0.456 OA
ENDROOT
BRANCH   1  12
ATOM     12  C   UNL     1      18.023  35.389  29.963  1.00  0.00     0.021 A 
ATOM     13  C   UNL     1      18.567  34.752  31.095  1.00  0.00     0.016 A 
ATOM     14  C   UNL     1      18.223  33.432  31.400  1.00  0.00     0.051 A 
ATOM     15  C   UNL     1      17.327  32.729  30.586  1.00  0.00     0.157 A 
ATOM     16  C   UNL     1      17.114  34.678  29.158  1.00  0.00     0.062 A 
ATOM     17  C   UNL     1      16.770  33.354  29.464  1.00  0.00     0.158 A 
BRANCH  15  18
ATOM     18  O   UNL     1      16.983  31.412  30.886  1.00  0.00    -0.504 OA
ATOM     19  H   UNL     1      17.625  30.646  30.718  1.00  0.00     0.293 HD
ENDBRANCH  15  18
BRANCH  17  20
ATOM     20  O   UNL     1      15.876  32.653  28.656  1.00  0.00    -0.504 OA
ATOM     21  H   UNL     1      15.251  33.131  28.018  1.00  0.00     0.293 HD
ENDBRANCH  17  20
ENDBRANCH   1  12
BRANCH   6  22
ATOM     22  O   UNL     1      19.802  41.747  29.166  1.00  0.00    -0.507 OA
ATOM     23  H   UNL     1      20.752  42.020  28.967  1.00  0.00     0.293 HD
ENDBRANCH   6  22
BRANCH   8  24
ATOM     24  O   UNL     1      17.105  40.791  25.331  1.00  0.00    -0.508 OA
ATOM     25  H   UNL     1      16.220  40.426  25.001  1.00  0.00     0.293 HD
ENDBRANCH   8  24
TORSDOF 5
ENDMDL
MODEL 2
REMARK VINA RESULT:    -4.889      1.537      7.300
REMARK INTER + INTRA:          -6.065
REMARK INTER:                  -5.748
REMARK INTRA:                  -0.317
REMARK UNBOUND:                -0.318
REMARK SMILES O=c1cc(-c2ccc(O)c(O)c2)oc2cc(O)cc(O)c12
REMARK SMILES IDX 4 1 3 2 2 3 1 4 21 5 19 6 18 7 16 8 15 9 14 10 13 11 5 12
REMARK SMILES IDX 6 13 7 14 8 15 12 16 10 17 9 18 11 20 20 22 17 24
REMARK H PARENT 9 19 11 21 20 23 17 25
REMARK Flexibility Score: inf
ROOT
ATOM      1  C   UNL     1      17.774  36.956  28.890  1.00  0.00     0.138 A 
ATOM      2  C   UNL     1      16.781  36.010  28.605  1.00  0.00     0.100 A 
ATOM      3  C   UNL     1      16.809  34.767  29.239  1.00  0.00     0.197 A 
ATOM      4  O   UNL     1      15.940  33.916  28.916  1.00  0.00    -0.289 OA
ATOM      5  C   UNL     1      17.821  34.484  30.186  1.00  0.00     0.107 A 
ATOM      6  C   UNL     1      17.927  33.267  30.924  1.00  0.00     0.134 A 
ATOM      7  C   UNL     1      19.038  33.054  31.750  1.00  0.00     0.093 A 
ATOM      8  C   UNL     1      20.015  34.036  31.910  1.00  0.00     0.123 A 
ATOM      9  C   UNL     1      19.894  35.251  31.236  1.00  0.00     0.094 A 
ATOM     10  C   UNL     1      18.815  35.481  30.378  1.00  0.00     0.146 A 
ATOM     11  O   UNL     1      18.745  36.646  29.743  1.00  0.00    -0.456 OA
ENDROOT
BRANCH   1  12
ATOM     12  C   UNL     1      17.790  38.295  28.247  1.00  0.00     0.021 A 
ATOM     13  C   UNL     1      16.864  38.645  27.246  1.00  0.00     0.016 A 
ATOM     14  C   UNL     1      16.896  39.916  26.663  1.00  0.00     0.051 A 
ATOM     15  C   UNL     1      17.847  40.858  27.074  1.00  0.00     0.157 A 
ATOM     16  C   UNL     1      18.733  39.252  28.662  1.00  0.00     0.062 A 
ATOM     17  C   UNL     1      18.765  40.526  28.077  1.00  0.00     0.158 A 
BRANCH  15  18
ATOM     18  O   UNL     1      17.882  42.124  26.495  1.00  0.00    -0.504 OA
ATOM     19  H   UNL     1      18.261  42.924  26.990  1.00  0.00     0.293 HD
ENDBRANCH  15  18
BRANCH  17  20
ATOM     20  O   UNL     1      19.709  41.467  28.487  1.00  0.00    -0.504 OA
ATOM     21  H   UNL     1      20.028  41.514  29.447  1.00  0.00     0.293 HD
ENDBRANCH  17  20
ENDBRANCH   1  12
BRANCH   6  22
ATOM     22  O   UNL     1      16.964  32.254  30.902  1.00  0.00    -0.507 OA
ATOM     23  H   UNL     1      16.846  31.555  31.620  1.00  0.00     0.293 HD
ENDBRANCH   6  22
BRANCH   8  24
ATOM     24  O   UNL     1      21.099  33.795  32.751  1.00  0.00    -0.508 OA
ATOM     25  H   UNL     1      21.756  33.046  32.567  1.00  0.00     0.293 HD
ENDBRANCH   8  24
TORSDOF 5
ENDMDL
MODEL 3
REMARK VINA RESULT:    -4.836      1.600      6.563
REMARK INTER + INTRA:          -6.003
REMARK INTER:                  -5.689
REMARK INTRA:                  -0.314
REMARK UNBOUND:                -0.318
REMARK SMILES O=c1cc(-c2ccc(O)c(O)c2)oc2cc(O)cc(O)c12
REMARK SMILES IDX 4 1 3 2 2 3 1 4 21 5 19 6 18 7 16 8 15 9 14 10 13 11 5 12
REMARK SMILES IDX 6 13 7 14 8 15 12 16 10 17 9 18 11 20 20 22 17 24
REMARK H PARENT 9 19 11 21 20 23 17 25
REMARK Flexibility Score: inf
ROOT
ATOM      1  C   UNL     1      18.416  38.181  29.461  1.00  0.00     0.138 A 
ATOM      2  C   UNL     1      19.137  38.552  30.603  1.00  0.00     0.100 A 
ATOM      3  C   UNL     1      19.470  37.586  31.554  1.00  0.00     0.197 A 
ATOM      4  O   UNL     1      20.063  37.960  32.598  1.00  0.00    -0.289 OA
ATOM      5  C   UNL     1      19.104  36.235  31.341  1.00  0.00     0.107 A 
ATOM      6  C   UNL     1      19.424  35.158  32.220  1.00  0.00     0.134 A 
ATOM      7  C   UNL     1      18.910  33.881  31.964  1.00  0.00     0.093 A 
ATOM      8  C   UNL     1      18.137  33.630  30.831  1.00  0.00     0.123 A 
ATOM      9  C   UNL     1      17.862  34.664  29.935  1.00  0.00     0.094 A 
ATOM     10  C   UNL     1      18.333  35.956  30.181  1.00  0.00     0.146 A 
ATOM     11  O   UNL     1      18.037  36.916  29.310  1.00  0.00    -0.456 OA
ENDROOT
BRANCH   1  12
ATOM     12  C   UNL     1      18.038  39.168  28.417  1.00  0.00     0.021 A 
ATOM     13  C   UNL     1      18.072  40.554  28.664  1.00  0.00     0.016 A 
ATOM     14  C   UNL     1      17.719  41.461  27.660  1.00  0.00     0.051 A 
ATOM     15  C   UNL     1      17.335  41.001  26.394  1.00  0.00     0.157 A 
ATOM     16  C   UNL     1      17.662  38.716  27.139  1.00  0.00     0.062 A 
ATOM     17  C   UNL     1      17.309  39.627  26.133  1.00  0.00     0.158 A 
BRANCH  15  18
ATOM     18  O   UNL     1      16.982  41.903  25.393  1.00  0.00    -0.504 OA
ATOM     19  H   UNL     1      17.269  42.874  25.428  1.00  0.00     0.293 HD
ENDBRANCH  15  18
BRANCH  17  20
ATOM     20  O   UNL     1      16.929  39.171  24.872  1.00  0.00    -0.504 OA
ATOM     21  H   UNL     1      17.236  38.273  24.517  1.00  0.00     0.293 HD
ENDBRANCH  17  20
ENDBRANCH   1  12
BRANCH   6  22
ATOM     22  O   UNL     1      20.258  35.282  33.336  1.00  0.00    -0.507 OA
ATOM     23  H   UNL     1      21.057  35.896  33.394  1.00  0.00     0.293 HD
ENDBRANCH   6  22
BRANCH   8  24
ATOM     24  O   UNL     1      17.654  32.344  30.601  1.00  0.00    -0.508 OA
ATOM     25  H   UNL     1      16.802  32.183  30.076  1.00  0.00     0.293 HD
ENDBRANCH   8  24
TORSDOF 5
ENDMDL
MODEL 4
REMARK VINA RESULT:    -4.606      2.583      3.932
REMARK INTER + INTRA:          -5.732
REMARK INTER:                  -5.414
REMARK INTRA:                  -0.318
REMARK UNBOUND:                -0.318
REMARK SMILES O=c1cc(-c2ccc(O)c(O)c2)oc2cc(O)cc(O)c12
REMARK SMILES IDX 4 1 3 2 2 3 1 4 21 5 19 6 18 7 16 8 15 9 14 10 13 11 5 12
REMARK SMILES IDX 6 13 7 14 8 15 12 16 10 17 9 18 11 20 20 22 17 24
REMARK H PARENT 9 19 11 21 20 23 17 25
REMARK Flexibility Score: inf
ROOT
ATOM      1  C   UNL     1      18.900  36.683  30.241  1.00  0.00     0.138 A 
ATOM      2  C   UNL     1      18.761  36.116  28.968  1.00  0.00     0.100 A 
ATOM      3  C   UNL     1      18.232  36.879  27.926  1.00  0.00     0.197 A 
ATOM      4  O   UNL     1      18.062  36.324  26.810  1.00  0.00    -0.289 OA
ATOM      5  C   UNL     1      17.871  38.228  28.156  1.00  0.00     0.107 A 
ATOM      6  C   UNL     1      17.360  39.114  27.162  1.00  0.00     0.134 A 
ATOM      7  C   UNL     1      16.927  40.393  27.532  1.00  0.00     0.093 A 
ATOM      8  C   UNL     1      17.041  40.839  28.848  1.00  0.00     0.123 A 
ATOM      9  C   UNL     1      17.589  40.000  29.819  1.00  0.00     0.094 A 
ATOM     10  C   UNL     1      17.999  38.706  29.488  1.00  0.00     0.146 A 
ATOM     11  O   UNL     1      18.502  37.934  30.445  1.00  0.00    -0.456 OA
ENDROOT
BRANCH   1  12
ATOM     12  C   UNL     1      19.458  35.916  31.384  1.00  0.00     0.021 A 
ATOM     13  C   UNL     1      19.964  34.612  31.223  1.00  0.00     0.016 A 
ATOM     14  C   UNL     1      20.492  33.917  32.316  1.00  0.00     0.051 A 
ATOM     15  C   UNL     1      20.531  34.513  33.582  1.00  0.00     0.157 A 
ATOM     16  C   UNL     1      19.512  36.511  32.658  1.00  0.00     0.062 A 
ATOM     17  C   UNL     1      20.042  35.813  33.752  1.00  0.00     0.158 A 
BRANCH  15  18
ATOM     18  O   UNL     1      21.055  33.822  34.672  1.00  0.00    -0.504 OA
ATOM     19  H   UNL     1      21.623  32.992  34.550  1.00  0.00     0.293 HD
ENDBRANCH  15  18
BRANCH  17  20
ATOM     20  O   UNL     1      20.084  36.406  35.013  1.00  0.00    -0.504 OA
ATOM     21  H   UNL     1      20.839  37.025  35.283  1.00  0.00     0.293 HD
ENDBRANCH  17  20
ENDBRANCH   1  12
BRANCH   6  22
ATOM     22  O   UNL     1      17.281  38.799  25.801  1.00  0.00    -0.507 OA
ATOM     23  H   UNL     1      16.825  37.983  25.423  1.00  0.00     0.293 HD
ENDBRANCH   6  22
BRANCH   8  24
ATOM     24  O   UNL     1      16.614  42.123  29.177  1.00  0.00    -0.508 OA
ATOM     25  H   UNL     1      17.218  42.773  29.668  1.00  0.00     0.293 HD
ENDBRANCH   8  24
TORSDOF 5
ENDMDL
MODEL 5
REMARK VINA RESULT:    -4.592      1.974      2.979
REMARK INTER + INTRA:          -5.716
REMARK INTER:                  -5.439
REMARK INTRA:                  -0.277
REMARK UNBOUND:                -0.318
REMARK SMILES O=c1cc(-c2ccc(O)c(O)c2)oc2cc(O)cc(O)c12
REMARK SMILES IDX 4 1 3 2 2 3 1 4 21 5 19 6 18 7 16 8 15 9 14 10 13 11 5 12
REMARK SMILES IDX 6 13 7 14 8 15 12 16 10 17 9 18 11 20 20 22 17 24
REMARK H PARENT 9 19 11 21 20 23 17 25
REMARK Flexibility Score: inf
ROOT
ATOM      1  C   UNL     1      18.449  35.824  31.712  1.00  0.00     0.138 A 
ATOM      2  C   UNL     1      19.246  36.294  32.764  1.00  0.00     0.100 A 
ATOM      3  C   UNL     1      19.830  37.559  32.676  1.00  0.00     0.197 A 
ATOM      4  O   UNL     1      20.590  37.929  33.608  1.00  0.00    -0.289 OA
ATOM      5  C   UNL     1      19.587  38.368  31.540  1.00  0.00     0.107 A 
ATOM      6  C   UNL     1      20.095  39.688  31.359  1.00  0.00     0.134 A 
ATOM      7  C   UNL     1      19.883  40.349  30.142  1.00  0.00     0.093 A 
ATOM      8  C   UNL     1      19.133  39.761  29.124  1.00  0.00     0.123 A 
ATOM      9  C   UNL     1      18.586  38.491  29.311  1.00  0.00     0.094 A 
ATOM     10  C   UNL     1      18.808  37.793  30.500  1.00  0.00     0.146 A 
ATOM     11  O   UNL     1      18.280  36.580  30.633  1.00  0.00    -0.456 OA
ENDROOT
BRANCH   1  12
ATOM     12  C   UNL     1      17.803  34.487  31.756  1.00  0.00     0.021 A 
ATOM     13  C   UNL     1      17.826  33.619  30.647  1.00  0.00     0.016 A 
ATOM     14  C   UNL     1      17.218  32.362  30.719  1.00  0.00     0.051 A 
ATOM     15  C   UNL     1      16.584  31.949  31.897  1.00  0.00     0.157 A 
ATOM     16  C   UNL     1      17.175  34.059  32.939  1.00  0.00     0.062 A 
ATOM     17  C   UNL     1      16.565  32.798  33.010  1.00  0.00     0.158 A 
BRANCH  15  18
ATOM     18  O   UNL     1      15.976  30.698  31.971  1.00  0.00    -0.504 OA
ATOM     19  H   UNL     1      16.279  30.000  32.640  1.00  0.00     0.293 HD
ENDBRANCH  15  18
BRANCH  17  20
ATOM     20  O   UNL     1      15.936  32.384  34.183  1.00  0.00    -0.504 OA
ATOM     21  H   UNL     1      16.379  31.735  34.822  1.00  0.00     0.293 HD
ENDBRANCH  17  20
ENDBRANCH   1  12
BRANCH   6  22
ATOM     22  O   UNL     1      20.786  40.402  32.343  1.00  0.00    -0.507 OA
ATOM     23  H   UNL     1      21.269  39.986  33.125  1.00  0.00     0.293 HD
ENDBRANCH   6  22
BRANCH   8  24
ATOM     24  O   UNL     1      18.931  40.454  27.933  1.00  0.00    -0.508 OA
ATOM     25  H   UNL     1      18.000  40.634  27.576  1.00  0.00     0.293 HD
ENDBRANCH   8  24
TORSDOF 5
ENDMDL
MODEL 6
REMARK VINA RESULT:    -4.562      2.983      7.340
REMARK INTER + INTRA:          -5.681
REMARK INTER:                  -5.367
REMARK INTRA:                  -0.313
REMARK UNBOUND:                -0.318
REMARK SMILES O=c1cc(-c2ccc(O)c(O)c2)oc2cc(O)cc(O)c12
REMARK SMILES IDX 4 1 3 2 2 3 1 4 21 5 19 6 18 7 16 8 15 9 14 10 13 11 5 12
REMARK SMILES IDX 6 13 7 14 8 15 12 16 10 17 9 18 11 20 20 22 17 24
REMARK H PARENT 9 19 11 21 20 23 17 25
REMARK Flexibility Score: inf
ROOT
ATOM      1  C   UNL     1      18.706  36.493  31.265  1.00  0.00     0.138 A 
ATOM      2  C   UNL     1      18.481  36.469  29.883  1.00  0.00     0.100 A 
ATOM      3  C   UNL     1      17.776  35.406  29.316  1.00  0.00     0.197 A 
ATOM      4  O   UNL     1      17.644  35.381  28.065  1.00  0.00    -0.289 OA
ATOM      5  C   UNL     1      17.268  34.378  30.145  1.00  0.00     0.107 A 
ATOM      6  C   UNL     1      16.501  33.267  29.685  1.00  0.00     0.134 A 
ATOM      7  C   UNL     1      16.150  32.250  30.582  1.00  0.00     0.093 A 
ATOM      8  C   UNL     1      16.487  32.334  31.932  1.00  0.00     0.123 A 
ATOM      9  C   UNL     1      17.190  33.442  32.404  1.00  0.00     0.094 A 
ATOM     10  C   UNL     1      17.584  34.457  31.528  1.00  0.00     0.146 A 
ATOM     11  O   UNL     1      18.265  35.489  32.015  1.00  0.00    -0.456 OA
ENDROOT
BRANCH   1  12
ATOM     12  C   UNL     1      19.447  37.601  31.920  1.00  0.00     0.021 A 
ATOM     13  C   UNL     1      19.608  38.853  31.297  1.00  0.00     0.016 A 
ATOM     14  C   UNL     1      20.303  39.882  31.941  1.00  0.00     0.051 A 
ATOM     15  C   UNL     1      20.841  39.680  33.217  1.00  0.00     0.157 A 
ATOM     16  C   UNL     1      19.981  37.412  33.208  1.00  0.00     0.062 A 
ATOM     17  C   UNL     1      20.678  38.443  33.853  1.00  0.00     0.158 A 
BRANCH  15  18
ATOM     18  O   UNL     1      21.535  40.702  33.861  1.00  0.00    -0.504 OA
ATOM     19  H   UNL     1      21.450  40.854  34.859  1.00  0.00     0.293 HD
ENDBRANCH  15  18
BRANCH  17  20
ATOM     20  O   UNL     1      21.212  38.245  35.125  1.00  0.00    -0.504 OA
ATOM     21  H   UNL     1      20.805  37.583  35.774  1.00  0.00     0.293 HD
ENDBRANCH  17  20
ENDBRANCH   1  12
BRANCH   6  22
ATOM     22  O   UNL     1      16.039  33.126  28.372  1.00  0.00    -0.507 OA
ATOM     23  H   UNL     1      15.072  33.004  28.111  1.00  0.00     0.293 HD
ENDBRANCH   6  22
BRANCH   8  24
ATOM     24  O   UNL     1      16.108  31.311  32.798  1.00  0.00    -0.508 OA
ATOM     25  H   UNL     1      16.703  30.507  32.961  1.00  0.00     0.293 HD
ENDBRANCH   8  24
TORSDOF 5
ENDMDL
MODEL 7
REMARK VINA RESULT:    -4.520      2.288      3.966
REMARK INTER + INTRA:          -5.631
REMARK INTER:                  -5.325
REMARK INTRA:                  -0.306
REMARK UNBOUND:                -0.318
REMARK SMILES O=c1cc(-c2ccc(O)c(O)c2)oc2cc(O)cc(O)c12
REMARK SMILES IDX 4 1 3 2 2 3 1 4 21 5 19 6 18 7 16 8 15 9 14 10 13 11 5 12
REMARK SMILES IDX 6 13 7 14 8 15 12 16 10 17 9 18 11 20 20 22 17 24
REMARK H PARENT 9 19 11 21 20 23 17 25
REMARK Flexibility Score: inf
ROOT
ATOM      1  C   UNL     1      18.148  35.664  30.961  1.00  0.00     0.138 A 
ATOM      2  C   UNL     1      18.083  36.200  29.669  1.00  0.00     0.100 A 
ATOM      3  C   UNL     1      18.617  37.465  29.418  1.00  0.00     0.197 A 
ATOM      4  O   UNL     1      18.488  37.946  28.263  1.00  0.00    -0.289 OA
ATOM      5  C   UNL     1      19.247  38.182  30.463  1.00  0.00     0.107 A 
ATOM      6  C   UNL     1      19.862  39.461  30.316  1.00  0.00     0.134 A 
ATOM      7  C   UNL     1      20.352  40.126  31.447  1.00  0.00     0.093 A 
ATOM      8  C   UNL     1      20.304  39.533  32.708  1.00  0.00     0.123 A 
ATOM      9  C   UNL     1      19.753  38.260  32.856  1.00  0.00     0.094 A 
ATOM     10  C   UNL     1      19.225  37.585  31.752  1.00  0.00     0.146 A 
ATOM     11  O   UNL     1      18.697  36.380  31.937  1.00  0.00    -0.456 OA
ENDROOT
BRANCH   1  12
ATOM     12  C   UNL     1      17.598  34.322  31.283  1.00  0.00     0.021 A 
ATOM     13  C   UNL     1      17.590  33.280  30.335  1.00  0.00     0.016 A 
ATOM     14  C   UNL     1      17.075  32.024  30.668  1.00  0.00     0.051 A 
ATOM     15  C   UNL     1      16.567  31.785  31.951  1.00  0.00     0.157 A 
ATOM     16  C   UNL     1      17.098  34.069  32.572  1.00  0.00     0.062 A 
ATOM     17  C   UNL     1      16.580  32.809  32.905  1.00  0.00     0.158 A 
BRANCH  15  18
ATOM     18  O   UNL     1      16.051  30.535  32.285  1.00  0.00    -0.504 OA
ATOM     19  H   UNL     1      15.377  30.064  31.692  1.00  0.00     0.293 HD
ENDBRANCH  15  18
BRANCH  17  20
ATOM     20  O   UNL     1      16.077  32.568  34.183  1.00  0.00    -0.504 OA
ATOM     21  H   UNL     1      16.690  32.445  34.980  1.00  0.00     0.293 HD
ENDBRANCH  17  20
ENDBRANCH   1  12
BRANCH   6  22
ATOM     22  O   UNL     1      20.039  40.106  29.088  1.00  0.00    -0.507 OA
ATOM     23  H   UNL     1      19.290  40.402  28.479  1.00  0.00     0.293 HD
ENDBRANCH   6  22
BRANCH   8  24
ATOM     24  O   UNL     1      20.815  40.218  33.808  1.00  0.00    -0.508 OA
ATOM     25  H   UNL     1      21.512  40.946  33.702  1.00  0.00     0.293 HD
ENDBRANCH   8  24
TORSDOF 5
ENDMDL
MODEL 8
REMARK VINA RESULT:    -4.309      2.167      6.823
REMARK INTER + INTRA:          -5.383
REMARK INTER:                  -5.089
REMARK INTRA:                  -0.294
REMARK UNBOUND:                -0.318
REMARK SMILES O=c1cc(-c2ccc(O)c(O)c2)oc2cc(O)cc(O)c12
REMARK SMILES IDX 4 1 3 2 2 3 1 4 21 5 19 6 18 7 16 8 15 9 14 10 13 11 5 12
REMARK SMILES IDX 6 13 7 14 8 15 12 16 10 17 9 18 11 20 20 22 17 24
REMARK H PARENT 9 19 11 21 20 23 17 25
REMARK Flexibility Score: inf
ROOT
ATOM      1  C   UNL     1      18.415  38.282  29.375  1.00  0.00     0.138 A 
ATOM      2  C   UNL     1      18.259  36.906  29.166  1.00  0.00     0.100 A 
ATOM      3  C   UNL     1      18.621  36.009  30.172  1.00  0.00     0.197 A 
ATOM      4  O   UNL     1      18.529  34.777  29.932  1.00  0.00    -0.289 OA
ATOM      5  C   UNL     1      19.112  36.498  31.406  1.00  0.00     0.107 A 
ATOM      6  C   UNL     1      19.474  35.681  32.518  1.00  0.00     0.134 A 
ATOM      7  C   UNL     1      20.057  36.269  33.647  1.00  0.00     0.093 A 
ATOM      8  C   UNL     1      20.237  37.650  33.728  1.00  0.00     0.123 A 
ATOM      9  C   UNL     1      19.837  38.465  32.668  1.00  0.00     0.094 A 
ATOM     10  C   UNL     1      19.284  37.904  31.514  1.00  0.00     0.146 A 
ATOM     11  O   UNL     1      18.929  38.713  30.522  1.00  0.00    -0.456 OA
ENDROOT
BRANCH   1  12
ATOM     12  C   UNL     1      18.044  39.280  28.339  1.00  0.00     0.021 A 
ATOM     13  C   UNL     1      18.100  40.664  28.592  1.00  0.00     0.016 A 
ATOM     14  C   UNL     1      17.754  41.581  27.594  1.00  0.00     0.051 A 
ATOM     15  C   UNL     1      17.355  41.133  26.330  1.00  0.00     0.157 A 
ATOM     16  C   UNL     1      17.654  38.840  27.061  1.00  0.00     0.062 A 
ATOM     17  C   UNL     1      17.307  39.760  26.062  1.00  0.00     0.158 A 
BRANCH  15  18
ATOM     18  O   UNL     1      17.008  42.045  25.335  1.00  0.00    -0.504 OA
ATOM     19  H   UNL     1      16.248  41.861  24.689  1.00  0.00     0.293 HD
ENDBRANCH  15  18
BRANCH  17  20
ATOM     20  O   UNL     1      16.913  39.317  24.800  1.00  0.00    -0.504 OA
ATOM     21  H   UNL     1      16.156  38.653  24.684  1.00  0.00     0.293 HD
ENDBRANCH  17  20
ENDBRANCH   1  12
BRANCH   6  22
ATOM     22  O   UNL     1      19.260  34.300  32.575  1.00  0.00    -0.507 OA
ATOM     23  H   UNL     1      19.982  33.600  32.488  1.00  0.00     0.293 HD
ENDBRANCH   6  22
BRANCH   8  24
ATOM     24  O   UNL     1      20.807  38.202  34.872  1.00  0.00    -0.508 OA
ATOM     25  H   UNL     1      20.820  37.700  35.753  1.00  0.00     0.293 HD
ENDBRANCH   8  24
TORSDOF 5
ENDMDL
MODEL 9
REMARK VINA RESULT:    -4.276      2.003      6.929
REMARK INTER + INTRA:          -5.344
REMARK INTER:                  -5.038
REMARK INTRA:                  -0.306
REMARK UNBOUND:                -0.318
REMARK SMILES O=c1cc(-c2ccc(O)c(O)c2)oc2cc(O)cc(O)c12
REMARK SMILES IDX 4 1 3 2 2 3 1 4 21 5 19 6 18 7 16 8 15 9 14 10 13 11 5 12
REMARK SMILES IDX 6 13 7 14 8 15 12 16 10 17 9 18 11 20 20 22 17 24
REMARK H PARENT 9 19 11 21 20 23 17 25
REMARK Flexibility Score: inf
ROOT
ATOM      1  C   UNL     1      18.427  37.625  30.905  1.00  0.00     0.138 A 
ATOM      2  C   UNL     1      18.505  37.663  32.303  1.00  0.00     0.100 A 
ATOM      3  C   UNL     1      18.195  36.521  33.044  1.00  0.00     0.197 A 
ATOM      4  O   UNL     1      18.213  36.604  34.299  1.00  0.00    -0.289 OA
ATOM      5  C   UNL     1      17.834  35.327  32.375  1.00  0.00     0.107 A 
ATOM      6  C   UNL     1      17.536  34.091  33.023  1.00  0.00     0.134 A 
ATOM      7  C   UNL     1      17.079  33.006  32.265  1.00  0.00     0.093 A 
ATOM      8  C   UNL     1      16.966  33.093  30.878  1.00  0.00     0.123 A 
ATOM      9  C   UNL     1      17.306  34.280  30.228  1.00  0.00     0.094 A 
ATOM     10  C   UNL     1      17.733  35.391  30.960  1.00  0.00     0.146 A 
ATOM     11  O   UNL     1      18.034  36.507  30.304  1.00  0.00    -0.456 OA
ENDROOT
BRANCH   1  12
ATOM     12  C   UNL     1      18.748  38.810  30.069  1.00  0.00     0.021 A 
ATOM     13  C   UNL     1      19.713  39.756  30.467  1.00  0.00     0.016 A 
ATOM     14  C   UNL     1      20.002  40.857  29.656  1.00  0.00     0.051 A 
ATOM     15  C   UNL     1      19.341  41.028  28.434  1.00  0.00     0.157 A 
ATOM     16  C   UNL     1      18.099  38.983  28.834  1.00  0.00     0.062 A 
ATOM     17  C   UNL     1      18.389  40.088  28.021  1.00  0.00     0.158 A 
BRANCH  15  18
ATOM     18  O   UNL     1      19.626  42.125  27.624  1.00  0.00    -0.504 OA
ATOM     19  H   UNL     1      19.302  42.174  26.664  1.00  0.00     0.293 HD
ENDBRANCH  15  18
BRANCH  17  20
ATOM     20  O   UNL     1      17.735  40.258  26.802  1.00  0.00    -0.504 OA
ATOM     21  H   UNL     1      17.037  39.600  26.478  1.00  0.00     0.293 HD
ENDBRANCH  17  20
ENDBRANCH   1  12
BRANCH   6  22
ATOM     22  O   UNL     1      17.696  33.870  34.395  1.00  0.00    -0.507 OA
ATOM     23  H   UNL     1      18.203  33.097  34.799  1.00  0.00     0.293 HD
ENDBRANCH   6  22
BRANCH   8  24
ATOM     24  O   UNL     1      16.522  31.989  30.155  1.00  0.00    -0.508 OA
ATOM     25  H   UNL     1      15.690  32.033  29.578  1.00  0.00     0.293 HD
ENDBRANCH   8  24
TORSDOF 5
ENDMDL
