MODEL 1
REMARK VINA RESULT:    -6.499      0.000      0.000
REMARK INTER + INTRA:          -8.090
REMARK INTER:                  -7.829
REMARK INTRA:                  -0.261
REMARK UNBOUND:                -0.261
REMARK SMILES O=c1c(O)c(-c2ccc(O)c(O)c2)oc2cc(O)cc(O)c12
REMARK SMILES IDX 5 1 3 2 2 3 1 4 22 5 20 6 19 7 17 8 16 9 15 10 14 11 6 12
REMARK SMILES IDX 7 13 8 14 9 15 13 16 11 17 10 18 12 20 4 22 21 24 18 26
REMARK H PARENT 10 19 12 21 4 23 21 25 18 27
REMARK Flexibility Score: inf
ROOT
ATOM      1  C   UNL     1      14.130  32.104  30.160  1.00  0.00     0.180 A 
ATOM      2  C   UNL     1      14.723  33.251  30.715  1.00  0.00     0.208 A 
ATOM      3  C   UNL     1      14.624  33.467  32.098  1.00  0.00     0.238 A 
ATOM      4  O   UNL     1      15.203  34.468  32.598  1.00  0.00    -0.285 OA
ATOM      5  C   UNL     1      13.919  32.543  32.908  1.00  0.00     0.111 A 
ATOM      6  C   UNL     1      13.721  32.684  34.314  1.00  0.00     0.134 A 
ATOM      7  C   UNL     1      13.121  31.644  35.035  1.00  0.00     0.093 A 
ATOM      8  C   UNL     1      12.654  30.498  34.391  1.00  0.00     0.123 A 
ATOM      9  C   UNL     1      12.788  30.377  33.007  1.00  0.00     0.094 A 
ATOM     10  C   UNL     1      13.416  31.381  32.266  1.00  0.00     0.146 A 
ATOM     11  O   UNL     1      13.533  31.223  30.954  1.00  0.00    -0.452 OA
ENDROOT
BRANCH   1  12
ATOM     12  C   UNL     1      14.171  31.820  28.707  1.00  0.00     0.025 A 
ATOM     13  C   UNL     1      13.395  32.558  27.795  1.00  0.00     0.016 A 
ATOM     14  C   UNL     1      13.431  32.256  26.431  1.00  0.00     0.051 A 
ATOM     15  C   UNL     1      14.231  31.206  25.961  1.00  0.00     0.157 A 
ATOM     16  C   UNL     1      14.955  30.756  28.232  1.00  0.00     0.062 A 
ATOM     17  C   UNL     1      14.993  30.453  26.863  1.00  0.00     0.158 A 
BRANCH  15  18
ATOM     18  O   UNL     1      14.271  30.905  24.601  1.00  0.00    -0.504 OA
ATOM     19  H   UNL     1      14.305  31.632  23.897  1.00  0.00     0.293 HD
ENDBRANCH  15  18
BRANCH  17  20
ATOM     20  O   UNL     1      15.782  29.406  26.394  1.00  0.00    -0.504 OA
ATOM     21  H   UNL     1      15.727  29.090  25.432  1.00  0.00     0.293 HD
ENDBRANCH  17  20
ENDBRANCH   1  12
BRANCH   2  22
ATOM     22  O   UNL     1      15.433  34.139  29.901  1.00  0.00    -0.502 OA
ATOM     23  H   UNL     1      15.086  35.062  29.672  1.00  0.00     0.293 HD
ENDBRANCH   2  22
BRANCH   6  24
ATOM     24  O   UNL     1      14.069  33.827  35.040  1.00  0.00    -0.507 OA
ATOM     25  H   UNL     1      14.875  34.403  34.854  1.00  0.00     0.293 HD
ENDBRANCH   6  24
BRANCH   8  26
ATOM     26  O   UNL     1      12.047  29.490  35.137  1.00  0.00    -0.508 OA
ATOM     27  H   UNL     1      11.745  28.623  34.709  1.00  0.00     0.293 HD
ENDBRANCH   8  26
TORSDOF 6
ENDMDL
MODEL 2
REMARK VINA RESULT:    -6.329      9.436     11.586
REMARK INTER + INTRA:          -7.885
REMARK INTER:                  -7.559
REMARK INTRA:                  -0.327
REMARK UNBOUND:                -0.261
REMARK SMILES O=c1c(O)c(-c2ccc(O)c(O)c2)oc2cc(O)cc(O)c12
REMARK SMILES IDX 5 1 3 2 2 3 1 4 22 5 20 6 19 7 17 8 16 9 15 10 14 11 6 12
REMARK SMILES IDX 7 13 8 14 9 15 13 16 11 17 10 18 12 20 4 22 21 24 18 26
REMARK H PARENT 10 19 12 21 4 23 21 25 18 27
REMARK Flexibility Score: inf
ROOT
ATOM      1  C   UNL     1      21.399  37.699  36.313  1.00  0.00     0.180 A 
ATOM      2  C   UNL     1      22.188  36.713  36.931  1.00  0.00     0.208 A 
ATOM      3  C   UNL     1      22.463  36.824  38.303  1.00  0.00     0.238 A 
ATOM      4  O   UNL     1      23.124  35.911  38.863  1.00  0.00    -0.285 OA
ATOM      5  C   UNL     1      21.962  37.927  39.036  1.00  0.00     0.111 A 
ATOM      6  C   UNL     1      22.214  38.161  40.421  1.00  0.00     0.134 A 
ATOM      7  C   UNL     1      21.559  39.213  41.074  1.00  0.00     0.093 A 
ATOM      8  C   UNL     1      20.715  40.078  40.378  1.00  0.00     0.123 A 
ATOM      9  C   UNL     1      20.509  39.895  39.010  1.00  0.00     0.094 A 
ATOM     10  C   UNL     1      21.119  38.832  38.339  1.00  0.00     0.146 A 
ATOM     11  O   UNL     1      20.889  38.685  37.040  1.00  0.00    -0.452 OA
ENDROOT
BRANCH   1  12
ATOM     12  C   UNL     1      21.086  37.664  34.865  1.00  0.00     0.025 A 
ATOM     13  C   UNL     1      21.888  38.339  33.927  1.00  0.00     0.016 A 
ATOM     14  C   UNL     1      21.559  38.312  32.569  1.00  0.00     0.051 A 
ATOM     15  C   UNL     1      20.419  37.623  32.131  1.00  0.00     0.157 A 
ATOM     16  C   UNL     1      19.934  36.993  34.423  1.00  0.00     0.062 A 
ATOM     17  C   UNL     1      19.604  36.965  33.060  1.00  0.00     0.158 A 
BRANCH  15  18
ATOM     18  O   UNL     1      20.090  37.593  30.777  1.00  0.00    -0.504 OA
ATOM     19  H   UNL     1      20.039  36.722  30.263  1.00  0.00     0.293 HD
ENDBRANCH  15  18
BRANCH  17  20
ATOM     20  O   UNL     1      18.468  36.287  32.623  1.00  0.00    -0.504 OA
ATOM     21  H   UNL     1      17.890  35.754  33.262  1.00  0.00     0.293 HD
ENDBRANCH  17  20
ENDBRANCH   1  12
BRANCH   2  22
ATOM     22  O   UNL     1      22.654  35.621  36.193  1.00  0.00    -0.502 OA
ATOM     23  H   UNL     1      22.440  35.497  35.212  1.00  0.00     0.293 HD
ENDBRANCH   2  22
BRANCH   6  24
ATOM     24  O   UNL     1      23.110  37.412  41.189  1.00  0.00    -0.507 OA
ATOM     25  H   UNL     1      23.905  36.913  40.820  1.00  0.00     0.293 HD
ENDBRANCH   6  24
BRANCH   8  26
ATOM     26  O   UNL     1      20.094  41.125  41.056  1.00  0.00    -0.508 OA
ATOM     27  H   UNL     1      20.189  41.237  42.058  1.00  0.00     0.293 HD
ENDBRANCH   8  26
TORSDOF 6
ENDMDL
MODEL 3
REMARK VINA RESULT:    -6.081      9.153     12.870
REMARK INTER + INTRA:          -7.586
REMARK INTER:                  -7.302
REMARK INTRA:                  -0.284
REMARK UNBOUND:                -0.261
REMARK SMILES O=c1c(O)c(-c2ccc(O)c(O)c2)oc2cc(O)cc(O)c12
REMARK SMILES IDX 5 1 3 2 2 3 1 4 22 5 20 6 19 7 17 8 16 9 15 10 14 11 6 12
REMARK SMILES IDX 7 13 8 14 9 15 13 16 11 17 10 18 12 20 4 22 21 24 18 26
REMARK H PARENT 10 19 12 21 4 23 21 25 18 27
REMARK Flexibility Score: inf
ROOT
ATOM      1  C   UNL     1      20.679  38.488  37.280  1.00  0.00     0.180 A 
ATOM      2  C   UNL     1      21.569  37.837  36.409  1.00  0.00     0.208 A 
ATOM      3  C   UNL     1      21.073  37.291  35.214  1.00  0.00     0.238 A 
ATOM      4  O   UNL     1      21.883  36.757  34.411  1.00  0.00    -0.285 OA
ATOM      5  C   UNL     1      19.693  37.388  34.913  1.00  0.00     0.111 A 
ATOM      6  C   UNL     1      19.076  36.836  33.751  1.00  0.00     0.134 A 
ATOM      7  C   UNL     1      17.726  37.106  33.491  1.00  0.00     0.093 A 
ATOM      8  C   UNL     1      16.957  37.852  34.383  1.00  0.00     0.123 A 
ATOM      9  C   UNL     1      17.535  38.346  35.553  1.00  0.00     0.094 A 
ATOM     10  C   UNL     1      18.888  38.125  35.821  1.00  0.00     0.146 A 
ATOM     11  O   UNL     1      19.403  38.621  36.940  1.00  0.00    -0.452 OA
ENDROOT
BRANCH   1  12
ATOM     12  C   UNL     1      21.122  39.067  38.570  1.00  0.00     0.025 A 
ATOM     13  C   UNL     1      21.798  40.299  38.626  1.00  0.00     0.016 A 
ATOM     14  C   UNL     1      22.227  40.813  39.852  1.00  0.00     0.051 A 
ATOM     15  C   UNL     1      22.000  40.099  41.037  1.00  0.00     0.157 A 
ATOM     16  C   UNL     1      20.916  38.346  39.758  1.00  0.00     0.062 A 
ATOM     17  C   UNL     1      21.346  38.862  40.989  1.00  0.00     0.158 A 
BRANCH  15  18
ATOM     18  O   UNL     1      22.426  40.611  42.261  1.00  0.00    -0.504 OA
ATOM     19  H   UNL     1      21.875  41.290  42.773  1.00  0.00     0.293 HD
ENDBRANCH  15  18
BRANCH  17  20
ATOM     20  O   UNL     1      21.128  38.151  42.167  1.00  0.00    -0.504 OA
ATOM     21  H   UNL     1      21.732  37.386  42.444  1.00  0.00     0.293 HD
ENDBRANCH  17  20
ENDBRANCH   1  12
BRANCH   2  22
ATOM     22  O   UNL     1      22.931  37.771  36.714  1.00  0.00    -0.502 OA
ATOM     23  H   UNL     1      23.643  38.163  36.110  1.00  0.00     0.293 HD
ENDBRANCH   2  22
BRANCH   6  24
ATOM     24  O   UNL     1      19.732  36.001  32.841  1.00  0.00    -0.507 OA
ATOM     25  H   UNL     1      20.688  36.115  32.543  1.00  0.00     0.293 HD
ENDBRANCH   6  24
BRANCH   8  26
ATOM     26  O   UNL     1      15.613  38.087  34.101  1.00  0.00    -0.508 OA
ATOM     27  H   UNL     1      15.002  37.345  33.780  1.00  0.00     0.293 HD
ENDBRANCH   8  26
TORSDOF 6
ENDMDL
MODEL 4
REMARK VINA RESULT:    -6.072      8.190     11.842
REMARK INTER + INTRA:          -7.576
REMARK INTER:                  -7.539
REMARK INTRA:                  -0.037
REMARK UNBOUND:                -0.261
REMARK SMILES O=c1c(O)c(-c2ccc(O)c(O)c2)oc2cc(O)cc(O)c12
REMARK SMILES IDX 5 1 3 2 2 3 1 4 22 5 20 6 19 7 17 8 16 9 15 10 14 11 6 12
REMARK SMILES IDX 7 13 8 14 9 15 13 16 11 17 10 18 12 20 4 22 21 24 18 26
REMARK H PARENT 10 19 12 21 4 23 21 25 18 27
REMARK Flexibility Score: inf
ROOT
ATOM      1  C   UNL     1      20.095  37.760  36.101  1.00  0.00     0.180 A 
ATOM      2  C   UNL     1      18.746  38.152  36.075  1.00  0.00     0.208 A 
ATOM      3  C   UNL     1      18.091  38.254  34.838  1.00  0.00     0.238 A 
ATOM      4  O   UNL     1      16.867  38.552  34.824  1.00  0.00    -0.285 OA
ATOM      5  C   UNL     1      18.796  37.982  33.641  1.00  0.00     0.111 A 
ATOM      6  C   UNL     1      18.243  38.095  32.330  1.00  0.00     0.134 A 
ATOM      7  C   UNL     1      18.994  37.674  31.225  1.00  0.00     0.093 A 
ATOM      8  C   UNL     1      20.300  37.207  31.378  1.00  0.00     0.123 A 
ATOM      9  C   UNL     1      20.872  37.150  32.649  1.00  0.00     0.094 A 
ATOM     10  C   UNL     1      20.135  37.527  33.774  1.00  0.00     0.146 A 
ATOM     11  O   UNL     1      20.712  37.448  34.967  1.00  0.00    -0.452 OA
ENDROOT
BRANCH   1  12
ATOM     12  C   UNL     1      20.861  37.653  37.364  1.00  0.00     0.025 A 
ATOM     13  C   UNL     1      20.887  38.707  38.295  1.00  0.00     0.016 A 
ATOM     14  C   UNL     1      21.636  38.593  39.469  1.00  0.00     0.051 A 
ATOM     15  C   UNL     1      22.379  37.432  39.724  1.00  0.00     0.157 A 
ATOM     16  C   UNL     1      21.623  36.501  37.615  1.00  0.00     0.062 A 
ATOM     17  C   UNL     1      22.374  36.385  38.794  1.00  0.00     0.158 A 
BRANCH  15  18
ATOM     18  O   UNL     1      23.125  37.314  40.895  1.00  0.00    -0.504 OA
ATOM     19  H   UNL     1      24.008  36.819  40.914  1.00  0.00     0.293 HD
ENDBRANCH  15  18
BRANCH  17  20
ATOM     20  O   UNL     1      23.119  35.235  39.046  1.00  0.00    -0.504 OA
ATOM     21  H   UNL     1      23.556  34.712  38.297  1.00  0.00     0.293 HD
ENDBRANCH  17  20
ENDBRANCH   1  12
BRANCH   2  22
ATOM     22  O   UNL     1      18.061  38.394  37.269  1.00  0.00    -0.502 OA
ATOM     23  H   UNL     1      17.071  38.604  37.295  1.00  0.00     0.293 HD
ENDBRANCH   2  22
BRANCH   6  24
ATOM     24  O   UNL     1      16.982  38.633  32.059  1.00  0.00    -0.507 OA
ATOM     25  H   UNL     1      16.821  39.505  31.578  1.00  0.00     0.293 HD
ENDBRANCH   6  24
BRANCH   8  26
ATOM     26  O   UNL     1      21.024  36.812  30.254  1.00  0.00    -0.508 OA
ATOM     27  H   UNL     1      21.139  35.835  30.015  1.00  0.00     0.293 HD
ENDBRANCH   8  26
TORSDOF 6
ENDMDL
MODEL 5
REMARK VINA RESULT:    -6.057      8.511     10.816
REMARK INTER + INTRA:          -7.557
REMARK INTER:                  -7.258
REMARK INTRA:                  -0.298
REMARK UNBOUND:                -0.261
REMARK SMILES O=c1c(O)c(-c2ccc(O)c(O)c2)oc2cc(O)cc(O)c12
REMARK SMILES IDX 5 1 3 2 2 3 1 4 22 5 20 6 19 7 17 8 16 9 15 10 14 11 6 12
REMARK SMILES IDX 7 13 8 14 9 15 13 16 11 17 10 18 12 20 4 22 21 24 18 26
REMARK H PARENT 10 19 12 21 4 23 21 25 18 27
REMARK Flexibility Score: inf
ROOT
ATOM      1  C   UNL     1      18.924  38.544  35.789  1.00  0.00     0.180 A 
ATOM      2  C   UNL     1      19.869  37.641  35.271  1.00  0.00     0.208 A 
ATOM      3  C   UNL     1      20.894  37.174  36.108  1.00  0.00     0.238 A 
ATOM      4  O   UNL     1      21.705  36.325  35.656  1.00  0.00    -0.285 OA
ATOM      5  C   UNL     1      20.973  37.628  37.447  1.00  0.00     0.111 A 
ATOM      6  C   UNL     1      21.993  37.253  38.372  1.00  0.00     0.134 A 
ATOM      7  C   UNL     1      21.897  37.660  39.709  1.00  0.00     0.093 A 
ATOM      8  C   UNL     1      20.856  38.481  40.138  1.00  0.00     0.123 A 
ATOM      9  C   UNL     1      19.886  38.904  39.229  1.00  0.00     0.094 A 
ATOM     10  C   UNL     1      19.934  38.485  37.897  1.00  0.00     0.146 A 
ATOM     11  O   UNL     1      18.986  38.900  37.066  1.00  0.00    -0.452 OA
ENDROOT
BRANCH   1  12
ATOM     12  C   UNL     1      17.829  39.100  34.960  1.00  0.00     0.025 A 
ATOM     13  C   UNL     1      17.911  40.392  34.410  1.00  0.00     0.016 A 
ATOM     14  C   UNL     1      16.855  40.904  33.652  1.00  0.00     0.051 A 
ATOM     15  C   UNL     1      15.698  40.141  33.444  1.00  0.00     0.157 A 
ATOM     16  C   UNL     1      16.659  38.348  34.766  1.00  0.00     0.062 A 
ATOM     17  C   UNL     1      15.600  38.861  34.004  1.00  0.00     0.158 A 
BRANCH  15  18
ATOM     18  O   UNL     1      14.645  40.649  32.687  1.00  0.00    -0.504 OA
ATOM     19  H   UNL     1      14.523  40.400  31.713  1.00  0.00     0.293 HD
ENDBRANCH  15  18
BRANCH  17  20
ATOM     20  O   UNL     1      14.446  38.107  33.803  1.00  0.00    -0.504 OA
ATOM     21  H   UNL     1      13.526  38.480  34.008  1.00  0.00     0.293 HD
ENDBRANCH  17  20
ENDBRANCH   1  12
BRANCH   2  22
ATOM     22  O   UNL     1      19.760  37.189  33.952  1.00  0.00    -0.502 OA
ATOM     23  H   UNL     1      19.012  37.483  33.337  1.00  0.00     0.293 HD
ENDBRANCH   2  22
BRANCH   6  24
ATOM     24  O   UNL     1      23.125  36.509  38.025  1.00  0.00    -0.507 OA
ATOM     25  H   UNL     1      23.602  36.568  37.139  1.00  0.00     0.293 HD
ENDBRANCH   6  24
BRANCH   8  26
ATOM     26  O   UNL     1      20.802  38.881  41.472  1.00  0.00    -0.508 OA
ATOM     27  H   UNL     1      21.191  38.309  42.212  1.00  0.00     0.293 HD
ENDBRANCH   8  26
TORSDOF 6
ENDMDL
MODEL 6
REMARK VINA RESULT:    -5.975      8.049      9.600
REMARK INTER + INTRA:          -7.459
REMARK INTER:                  -7.240
REMARK INTRA:                  -0.219
REMARK UNBOUND:                -0.261
REMARK SMILES O=c1c(O)c(-c2ccc(O)c(O)c2)oc2cc(O)cc(O)c12
REMARK SMILES IDX 5 1 3 2 2 3 1 4 22 5 20 6 19 7 17 8 16 9 15 10 14 11 6 12
REMARK SMILES IDX 7 13 8 14 9 15 13 16 11 17 10 18 12 20 4 22 21 24 18 26
REMARK H PARENT 10 19 12 21 4 23 21 25 18 27
REMARK Flexibility Score: inf
ROOT
ATOM      1  C   UNL     1      17.341  38.495  34.024  1.00  0.00     0.180 A 
ATOM      2  C   UNL     1      18.149  37.683  33.210  1.00  0.00     0.208 A 
ATOM      3  C   UNL     1      19.331  37.147  33.745  1.00  0.00     0.238 A 
ATOM      4  O   UNL     1      20.024  36.377  33.030  1.00  0.00    -0.285 OA
ATOM      5  C   UNL     1      19.700  37.443  35.080  1.00  0.00     0.111 A 
ATOM      6  C   UNL     1      20.896  36.988  35.711  1.00  0.00     0.134 A 
ATOM      7  C   UNL     1      21.093  37.233  37.076  1.00  0.00     0.093 A 
ATOM      8  C   UNL     1      20.171  37.973  37.815  1.00  0.00     0.123 A 
ATOM      9  C   UNL     1      19.027  38.475  37.193  1.00  0.00     0.094 A 
ATOM     10  C   UNL     1      18.784  38.215  35.842  1.00  0.00     0.146 A 
ATOM     11  O   UNL     1      17.679  38.701  35.291  1.00  0.00    -0.452 OA
ENDROOT
BRANCH   1  12
ATOM     12  C   UNL     1      16.092  39.117  33.524  1.00  0.00     0.025 A 
ATOM     13  C   UNL     1      16.118  40.123  32.541  1.00  0.00     0.016 A 
ATOM     14  C   UNL     1      14.929  40.711  32.102  1.00  0.00     0.051 A 
ATOM     15  C   UNL     1      13.700  40.314  32.647  1.00  0.00     0.157 A 
ATOM     16  C   UNL     1      14.860  38.737  34.080  1.00  0.00     0.062 A 
ATOM     17  C   UNL     1      13.666  39.327  33.640  1.00  0.00     0.158 A 
BRANCH  15  18
ATOM     18  O   UNL     1      12.513  40.898  32.210  1.00  0.00    -0.504 OA
ATOM     19  H   UNL     1      12.234  41.823  32.514  1.00  0.00     0.293 HD
ENDBRANCH  15  18
BRANCH  17  20
ATOM     20  O   UNL     1      12.444  38.939  34.185  1.00  0.00    -0.504 OA
ATOM     21  H   UNL     1      12.321  38.827  35.185  1.00  0.00     0.293 HD
ENDBRANCH  17  20
ENDBRANCH   1  12
BRANCH   2  22
ATOM     22  O   UNL     1      17.756  37.385  31.902  1.00  0.00    -0.502 OA
ATOM     23  H   UNL     1      16.805  37.133  31.665  1.00  0.00     0.293 HD
ENDBRANCH   2  22
BRANCH   6  24
ATOM     24  O   UNL     1      21.925  36.319  35.042  1.00  0.00    -0.507 OA
ATOM     25  H   UNL     1      22.417  36.678  34.239  1.00  0.00     0.293 HD
ENDBRANCH   6  24
BRANCH   8  26
ATOM     26  O   UNL     1      20.408  38.213  39.167  1.00  0.00    -0.508 OA
ATOM     27  H   UNL     1      21.025  37.620  39.709  1.00  0.00     0.293 HD
ENDBRANCH   8  26
TORSDOF 6
ENDMDL
MODEL 7
REMARK VINA RESULT:    -5.855      1.669      7.474
REMARK INTER + INTRA:          -7.314
REMARK INTER:                  -7.597
REMARK INTRA:                   0.283
REMARK UNBOUND:                -0.261
REMARK SMILES O=c1c(O)c(-c2ccc(O)c(O)c2)oc2cc(O)cc(O)c12
REMARK SMILES IDX 5 1 3 2 2 3 1 4 22 5 20 6 19 7 17 8 16 9 15 10 14 11 6 12
REMARK SMILES IDX 7 13 8 14 9 15 13 16 11 17 10 18 12 20 4 22 21 24 18 26
REMARK H PARENT 10 19 12 21 4 23 21 25 18 27
REMARK Flexibility Score: inf
ROOT
ATOM      1  C   UNL     1      14.335  32.208  29.409  1.00  0.00     0.180 A 
ATOM      2  C   UNL     1      14.212  30.913  28.876  1.00  0.00     0.208 A 
ATOM      3  C   UNL     1      14.264  30.743  27.484  1.00  0.00     0.238 A 
ATOM      4  O   UNL     1      14.207  29.576  27.015  1.00  0.00    -0.285 OA
ATOM      5  C   UNL     1      14.423  31.869  26.641  1.00  0.00     0.111 A 
ATOM      6  C   UNL     1      14.448  31.817  25.215  1.00  0.00     0.134 A 
ATOM      7  C   UNL     1      14.741  32.977  24.487  1.00  0.00     0.093 A 
ATOM      8  C   UNL     1      14.944  34.199  25.129  1.00  0.00     0.123 A 
ATOM      9  C   UNL     1      14.862  34.273  26.520  1.00  0.00     0.094 A 
ATOM     10  C   UNL     1      14.608  33.125  27.276  1.00  0.00     0.146 A 
ATOM     11  O   UNL     1      14.549  33.236  28.597  1.00  0.00    -0.452 OA
ENDROOT
BRANCH   1  12
ATOM     12  C   UNL     1      14.265  32.470  30.865  1.00  0.00     0.025 A 
ATOM     13  C   UNL     1      13.550  31.620  31.729  1.00  0.00     0.016 A 
ATOM     14  C   UNL     1      13.478  31.902  33.095  1.00  0.00     0.051 A 
ATOM     15  C   UNL     1      14.105  33.041  33.617  1.00  0.00     0.157 A 
ATOM     16  C   UNL     1      14.874  33.622  31.391  1.00  0.00     0.062 A 
ATOM     17  C   UNL     1      14.802  33.904  32.762  1.00  0.00     0.158 A 
BRANCH  15  18
ATOM     18  O   UNL     1      14.036  33.323  34.980  1.00  0.00    -0.504 OA
ATOM     19  H   UNL     1      14.607  34.046  35.402  1.00  0.00     0.293 HD
ENDBRANCH  15  18
BRANCH  17  20
ATOM     20  O   UNL     1      15.419  35.040  33.282  1.00  0.00    -0.504 OA
ATOM     21  H   UNL     1      15.190  35.393  34.204  1.00  0.00     0.293 HD
ENDBRANCH  17  20
ENDBRANCH   1  12
BRANCH   2  22
ATOM     22  O   UNL     1      14.078  29.812  29.727  1.00  0.00    -0.502 OA
ATOM     23  H   UNL     1      14.876  29.298  30.079  1.00  0.00     0.293 HD
ENDBRANCH   2  22
BRANCH   6  24
ATOM     24  O   UNL     1      14.168  30.668  24.471  1.00  0.00    -0.507 OA
ATOM     25  H   UNL     1      14.808  30.231  23.826  1.00  0.00     0.293 HD
ENDBRANCH   6  24
BRANCH   8  26
ATOM     26  O   UNL     1      15.217  35.336  24.372  1.00  0.00    -0.508 OA
ATOM     27  H   UNL     1      14.616  35.620  23.608  1.00  0.00     0.293 HD
ENDBRANCH   8  26
TORSDOF 6
ENDMDL
MODEL 8
REMARK VINA RESULT:    -5.802      9.136     13.150
REMARK INTER + INTRA:          -7.251
REMARK INTER:                  -7.132
REMARK INTRA:                  -0.118
REMARK UNBOUND:                -0.261
REMARK SMILES O=c1c(O)c(-c2ccc(O)c(O)c2)oc2cc(O)cc(O)c12
REMARK SMILES IDX 5 1 3 2 2 3 1 4 22 5 20 6 19 7 17 8 16 9 15 10 14 11 6 12
REMARK SMILES IDX 7 13 8 14 9 15 13 16 11 17 10 18 12 20 4 22 21 24 18 26
REMARK H PARENT 10 19 12 21 4 23 21 25 18 27
REMARK Flexibility Score: inf
ROOT
ATOM      1  C   UNL     1      20.359  38.621  36.893  1.00  0.00     0.180 A 
ATOM      2  C   UNL     1      19.014  38.322  36.612  1.00  0.00     0.208 A 
ATOM      3  C   UNL     1      18.620  38.154  35.276  1.00  0.00     0.238 A 
ATOM      4  O   UNL     1      17.427  37.833  35.033  1.00  0.00    -0.285 OA
ATOM      5  C   UNL     1      19.569  38.303  34.235  1.00  0.00     0.111 A 
ATOM      6  C   UNL     1      19.270  38.196  32.844  1.00  0.00     0.134 A 
ATOM      7  C   UNL     1      20.313  38.232  31.909  1.00  0.00     0.093 A 
ATOM      8  C   UNL     1      21.632  38.438  32.310  1.00  0.00     0.123 A 
ATOM      9  C   UNL     1      21.928  38.605  33.663  1.00  0.00     0.094 A 
ATOM     10  C   UNL     1      20.914  38.537  34.623  1.00  0.00     0.146 A 
ATOM     11  O   UNL     1      21.239  38.690  35.901  1.00  0.00    -0.452 OA
ENDROOT
BRANCH   1  12
ATOM     12  C   UNL     1      20.846  38.837  38.275  1.00  0.00     0.025 A 
ATOM     13  C   UNL     1      21.806  37.988  38.853  1.00  0.00     0.016 A 
ATOM     14  C   UNL     1      22.233  38.197  40.168  1.00  0.00     0.051 A 
ATOM     15  C   UNL     1      21.697  39.247  40.926  1.00  0.00     0.157 A 
ATOM     16  C   UNL     1      20.298  39.875  39.047  1.00  0.00     0.062 A 
ATOM     17  C   UNL     1      20.726  40.086  40.365  1.00  0.00     0.158 A 
BRANCH  15  18
ATOM     18  O   UNL     1      22.123  39.459  42.236  1.00  0.00    -0.504 OA
ATOM     19  H   UNL     1      22.858  40.121  42.455  1.00  0.00     0.293 HD
ENDBRANCH  15  18
BRANCH  17  20
ATOM     20  O   UNL     1      20.191  41.124  41.124  1.00  0.00    -0.504 OA
ATOM     21  H   UNL     1      19.526  41.780  40.730  1.00  0.00     0.293 HD
ENDBRANCH  17  20
ENDBRANCH   1  12
BRANCH   2  22
ATOM     22  O   UNL     1      18.098  38.157  37.655  1.00  0.00    -0.502 OA
ATOM     23  H   UNL     1      17.665  37.266  37.861  1.00  0.00     0.293 HD
ENDBRANCH   2  22
BRANCH   6  24
ATOM     24  O   UNL     1      17.975  38.079  32.330  1.00  0.00    -0.507 OA
ATOM     25  H   UNL     1      17.139  38.017  32.890  1.00  0.00     0.293 HD
ENDBRANCH   6  24
BRANCH   8  26
ATOM     26  O   UNL     1      22.642  38.486  31.351  1.00  0.00    -0.508 OA
ATOM     27  H   UNL     1      23.052  39.364  31.058  1.00  0.00     0.293 HD
ENDBRANCH   8  26
TORSDOF 6
ENDMDL
MODEL 9
REMARK VINA RESULT:    -5.754      8.390     12.152
REMARK INTER + INTRA:          -7.193
REMARK INTER:                  -7.064
REMARK INTRA:                  -0.129
REMARK UNBOUND:                -0.261
REMARK SMILES O=c1c(O)c(-c2ccc(O)c(O)c2)oc2cc(O)cc(O)c12
REMARK SMILES IDX 5 1 3 2 2 3 1 4 22 5 20 6 19 7 17 8 16 9 15 10 14 11 6 12
REMARK SMILES IDX 7 13 8 14 9 15 13 16 11 17 10 18 12 20 4 22 21 24 18 26
REMARK H PARENT 10 19 12 21 4 23 21 25 18 27
REMARK Flexibility Score: inf
ROOT
ATOM      1  C   UNL     1      19.541  38.330  36.313  1.00  0.00     0.180 A 
ATOM      2  C   UNL     1      20.120  37.443  35.389  1.00  0.00     0.208 A 
ATOM      3  C   UNL     1      19.635  37.420  34.072  1.00  0.00     0.238 A 
ATOM      4  O   UNL     1      20.193  36.663  33.235  1.00  0.00    -0.285 OA
ATOM      5  C   UNL     1      18.567  38.272  33.698  1.00  0.00     0.111 A 
ATOM      6  C   UNL     1      17.970  38.302  32.403  1.00  0.00     0.134 A 
ATOM      7  C   UNL     1      17.008  39.276  32.108  1.00  0.00     0.093 A 
ATOM      8  C   UNL     1      16.574  40.177  33.081  1.00  0.00     0.123 A 
ATOM      9  C   UNL     1      17.107  40.116  34.369  1.00  0.00     0.094 A 
ATOM     10  C   UNL     1      18.096  39.180  34.682  1.00  0.00     0.146 A 
ATOM     11  O   UNL     1      18.585  39.163  35.916  1.00  0.00    -0.452 OA
ENDROOT
BRANCH   1  12
ATOM     12  C   UNL     1      19.981  38.395  37.726  1.00  0.00     0.025 A 
ATOM     13  C   UNL     1      19.098  38.104  38.781  1.00  0.00     0.016 A 
ATOM     14  C   UNL     1      19.528  38.196  40.108  1.00  0.00     0.051 A 
ATOM     15  C   UNL     1      20.841  38.590  40.399  1.00  0.00     0.157 A 
ATOM     16  C   UNL     1      21.289  38.809  38.024  1.00  0.00     0.062 A 
ATOM     17  C   UNL     1      21.722  38.900  39.355  1.00  0.00     0.158 A 
BRANCH  15  18
ATOM     18  O   UNL     1      21.274  38.680  41.720  1.00  0.00    -0.504 OA
ATOM     19  H   UNL     1      20.723  38.310  42.485  1.00  0.00     0.293 HD
ENDBRANCH  15  18
BRANCH  17  20
ATOM     20  O   UNL     1      23.025  39.299  39.647  1.00  0.00    -0.504 OA
ATOM     21  H   UNL     1      23.825  38.752  39.354  1.00  0.00     0.293 HD
ENDBRANCH  17  20
ENDBRANCH   1  12
BRANCH   2  22
ATOM     22  O   UNL     1      21.188  36.627  35.773  1.00  0.00    -0.502 OA
ATOM     23  H   UNL     1      21.063  35.658  36.040  1.00  0.00     0.293 HD
ENDBRANCH   2  22
BRANCH   6  24
ATOM     24  O   UNL     1      18.266  37.390  31.386  1.00  0.00    -0.507 OA
ATOM     25  H   UNL     1      19.029  36.732  31.408  1.00  0.00     0.293 HD
ENDBRANCH   6  24
BRANCH   8  26
ATOM     26  O   UNL     1      15.602  41.122  32.758  1.00  0.00    -0.508 OA
ATOM     27  H   UNL     1      15.161  41.136  31.846  1.00  0.00     0.293 HD
ENDBRANCH   8  26
TORSDOF 6
ENDMDL
