MODEL 1
REMARK VINA RESULT:    -6.495      0.000      0.000
REMARK INTER + INTRA:          -7.475
REMARK INTER:                  -7.824
REMARK INTRA:                   0.349
REMARK UNBOUND:                 0.349
REMARK SMILES O=c1c(O)c(-c2ccc(O)c(O)c2)oc2cc(O)cc(O)c12
REMARK SMILES IDX 5 1 3 2 2 3 1 4 22 5 20 6 19 7 17 8 16 9 15 10 14 11 6 12
REMARK SMILES IDX 7 13 8 14 9 15 13 16 11 17 10 18 12 20 4 22 21 24 18 26
REMARK H PARENT 10 19 12 21 4 23 21 25 18 27
REMARK Flexibility Score: inf
ROOT
ATOM      1  C   UNL     1      10.233  -3.275  19.182  1.00  0.00     0.180 A 
ATOM      2  C   UNL     1      11.466  -2.695  18.823  1.00  0.00     0.208 A 
ATOM      3  C   UNL     1      11.518  -1.316  18.568  1.00  0.00     0.238 A 
ATOM      4  O   UNL     1      12.614  -0.788  18.236  1.00  0.00    -0.285 OA
ATOM      5  C   UNL     1      10.349  -0.539  18.697  1.00  0.00     0.111 A 
ATOM      6  C   UNL     1      10.317   0.857  18.462  1.00  0.00     0.134 A 
ATOM      7  C   UNL     1       9.115   1.562  18.619  1.00  0.00     0.093 A 
ATOM      8  C   UNL     1       7.947   0.900  19.006  1.00  0.00     0.123 A 
ATOM      9  C   UNL     1       7.971  -0.478  19.239  1.00  0.00     0.094 A 
ATOM     10  C   UNL     1       9.159  -1.198  19.086  1.00  0.00     0.146 A 
ATOM     11  O   UNL     1       9.155  -2.508  19.307  1.00  0.00    -0.452 OA
ENDROOT
BRANCH   1  12
ATOM     12  C   UNL     1      10.094  -4.725  19.447  1.00  0.00     0.025 A 
ATOM     13  C   UNL     1      11.196  -5.511  19.820  1.00  0.00     0.016 A 
ATOM     14  C   UNL     1      11.043  -6.880  20.042  1.00  0.00     0.051 A 
ATOM     15  C   UNL     1       9.797  -7.495  19.884  1.00  0.00     0.157 A 
ATOM     16  C   UNL     1       8.847  -5.343  19.268  1.00  0.00     0.062 A 
ATOM     17  C   UNL     1       8.684  -6.717  19.488  1.00  0.00     0.158 A 
BRANCH  15  18
ATOM     18  O   UNL     1       9.711  -8.868  20.125  1.00  0.00    -0.504 OA
ATOM     19  H   UNL     1      10.487  -9.508  20.031  1.00  0.00     0.293 HD
ENDBRANCH  15  18
BRANCH  17  20
ATOM     20  O   UNL     1       7.412  -7.261  19.300  1.00  0.00    -0.504 OA
ATOM     21  H   UNL     1       7.008  -7.453  18.395  1.00  0.00     0.293 HD
ENDBRANCH  17  20
ENDBRANCH   1  12
BRANCH   2  22
ATOM     22  O   UNL     1      12.620  -3.479  18.751  1.00  0.00    -0.502 OA
ATOM     23  H   UNL     1      13.114  -3.637  17.882  1.00  0.00     0.293 HD
ENDBRANCH   2  22
BRANCH   6  24
ATOM     24  O   UNL     1      11.467   1.547  18.076  1.00  0.00    -0.507 OA
ATOM     25  H   UNL     1      11.811   1.518  17.124  1.00  0.00     0.293 HD
ENDBRANCH   6  24
BRANCH   8  26
ATOM     26  O   UNL     1       6.766   1.624  19.156  1.00  0.00    -0.508 OA
ATOM     27  H   UNL     1       5.995   1.523  18.505  1.00  0.00     0.293 HD
ENDBRANCH   8  26
TORSDOF 6
ENDMDL
MODEL 2
REMARK VINA RESULT:    -6.212      1.341      2.835
REMARK INTER + INTRA:          -7.134
REMARK INTER:                  -7.648
REMARK INTRA:                   0.513
REMARK UNBOUND:                 0.349
REMARK SMILES O=c1c(O)c(-c2ccc(O)c(O)c2)oc2cc(O)cc(O)c12
REMARK SMILES IDX 5 1 3 2 2 3 1 4 22 5 20 6 19 7 17 8 16 9 15 10 14 11 6 12
REMARK SMILES IDX 7 13 8 14 9 15 13 16 11 17 10 18 12 20 4 22 21 24 18 26
REMARK H PARENT 10 19 12 21 4 23 21 25 18 27
REMARK Flexibility Score: inf
ROOT
ATOM      1  C   UNL     1       9.142  -2.935  19.217  1.00  0.00     0.180 A 
ATOM      2  C   UNL     1       7.906  -2.392  18.810  1.00  0.00     0.208 A 
ATOM      3  C   UNL     1       7.810  -1.007  18.605  1.00  0.00     0.238 A 
ATOM      4  O   UNL     1       6.706  -0.509  18.251  1.00  0.00    -0.285 OA
ATOM      5  C   UNL     1       8.948  -0.194  18.786  1.00  0.00     0.111 A 
ATOM      6  C   UNL     1       8.935   1.209  18.595  1.00  0.00     0.134 A 
ATOM      7  C   UNL     1      10.112   1.947  18.787  1.00  0.00     0.093 A 
ATOM      8  C   UNL     1      11.298   1.313  19.164  1.00  0.00     0.123 A 
ATOM      9  C   UNL     1      11.316  -0.072  19.355  1.00  0.00     0.094 A 
ATOM     10  C   UNL     1      10.154  -0.826  19.170  1.00  0.00     0.146 A 
ATOM     11  O   UNL     1      10.196  -2.139  19.364  1.00  0.00    -0.452 OA
ENDROOT
BRANCH   1  12
ATOM     12  C   UNL     1       9.318  -4.383  19.473  1.00  0.00     0.025 A 
ATOM     13  C   UNL     1      10.593  -4.948  19.630  1.00  0.00     0.016 A 
ATOM     14  C   UNL     1      10.735  -6.319  19.848  1.00  0.00     0.051 A 
ATOM     15  C   UNL     1       9.614  -7.154  19.899  1.00  0.00     0.157 A 
ATOM     16  C   UNL     1       8.193  -5.221  19.503  1.00  0.00     0.062 A 
ATOM     17  C   UNL     1       8.326  -6.599  19.721  1.00  0.00     0.158 A 
BRANCH  15  18
ATOM     18  O   UNL     1       9.824  -8.516  20.124  1.00  0.00    -0.504 OA
ATOM     19  H   UNL     1      10.101  -8.906  21.014  1.00  0.00     0.293 HD
ENDBRANCH  15  18
BRANCH  17  20
ATOM     20  O   UNL     1       7.161  -7.369  19.748  1.00  0.00    -0.504 OA
ATOM     21  H   UNL     1       6.251  -7.008  19.991  1.00  0.00     0.293 HD
ENDBRANCH  17  20
ENDBRANCH   1  12
BRANCH   2  22
ATOM     22  O   UNL     1       6.808  -3.226  18.590  1.00  0.00    -0.502 OA
ATOM     23  H   UNL     1       6.114  -3.031  17.879  1.00  0.00     0.293 HD
ENDBRANCH   2  22
BRANCH   6  24
ATOM     24  O   UNL     1       7.767   1.872  18.216  1.00  0.00    -0.507 OA
ATOM     25  H   UNL     1       6.887   1.383  18.112  1.00  0.00     0.293 HD
ENDBRANCH   6  24
BRANCH   8  26
ATOM     26  O   UNL     1      12.453   2.069  19.348  1.00  0.00    -0.508 OA
ATOM     27  H   UNL     1      13.287   1.671  19.764  1.00  0.00     0.293 HD
ENDBRANCH   8  26
TORSDOF 6
ENDMDL
MODEL 3
REMARK VINA RESULT:    -6.202      1.376      6.598
REMARK INTER + INTRA:          -7.122
REMARK INTER:                  -7.200
REMARK INTRA:                   0.078
REMARK UNBOUND:                 0.349
REMARK SMILES O=c1c(O)c(-c2ccc(O)c(O)c2)oc2cc(O)cc(O)c12
REMARK SMILES IDX 5 1 3 2 2 3 1 4 22 5 20 6 19 7 17 8 16 9 15 10 14 11 6 12
REMARK SMILES IDX 7 13 8 14 9 15 13 16 11 17 10 18 12 20 4 22 21 24 18 26
REMARK H PARENT 10 19 12 21 4 23 21 25 18 27
REMARK Flexibility Score: inf
ROOT
ATOM      1  C   UNL     1      10.180  -1.967  19.469  1.00  0.00     0.180 A 
ATOM      2  C   UNL     1      11.529  -2.345  19.612  1.00  0.00     0.208 A 
ATOM      3  C   UNL     1      11.838  -3.704  19.783  1.00  0.00     0.238 A 
ATOM      4  O   UNL     1      13.042  -4.053  19.923  1.00  0.00    -0.285 OA
ATOM      5  C   UNL     1      10.801  -4.659  19.786  1.00  0.00     0.111 A 
ATOM      6  C   UNL     1      11.028  -6.048  19.949  1.00  0.00     0.134 A 
ATOM      7  C   UNL     1       9.943  -6.936  19.933  1.00  0.00     0.093 A 
ATOM      8  C   UNL     1       8.639  -6.465  19.757  1.00  0.00     0.123 A 
ATOM      9  C   UNL     1       8.409  -5.096  19.596  1.00  0.00     0.094 A 
ATOM     10  C   UNL     1       9.476  -4.194  19.611  1.00  0.00     0.146 A 
ATOM     11  O   UNL     1       9.230  -2.897  19.463  1.00  0.00    -0.452 OA
ENDROOT
BRANCH   1  12
ATOM     12  C   UNL     1       9.773  -0.553  19.304  1.00  0.00     0.025 A 
ATOM     13  C   UNL     1      10.357   0.471  20.067  1.00  0.00     0.016 A 
ATOM     14  C   UNL     1       9.939   1.793  19.910  1.00  0.00     0.051 A 
ATOM     15  C   UNL     1       8.926   2.120  19.004  1.00  0.00     0.157 A 
ATOM     16  C   UNL     1       8.741  -0.231  18.409  1.00  0.00     0.062 A 
ATOM     17  C   UNL     1       8.315   1.094  18.245  1.00  0.00     0.158 A 
BRANCH  15  18
ATOM     18  O   UNL     1       8.558   3.463  18.892  1.00  0.00    -0.504 OA
ATOM     19  H   UNL     1       7.728   3.857  19.311  1.00  0.00     0.293 HD
ENDBRANCH  15  18
BRANCH  17  20
ATOM     20  O   UNL     1       7.291   1.341  17.329  1.00  0.00    -0.504 OA
ATOM     21  H   UNL     1       6.892   0.637  16.725  1.00  0.00     0.293 HD
ENDBRANCH  17  20
ENDBRANCH   1  12
BRANCH   2  22
ATOM     22  O   UNL     1      12.541  -1.384  19.555  1.00  0.00    -0.502 OA
ATOM     23  H   UNL     1      12.621  -0.726  18.789  1.00  0.00     0.293 HD
ENDBRANCH   2  22
BRANCH   6  24
ATOM     24  O   UNL     1      12.318  -6.549  20.125  1.00  0.00    -0.507 OA
ATOM     25  H   UNL     1      12.866  -6.332  20.948  1.00  0.00     0.293 HD
ENDBRANCH   6  24
BRANCH   8  26
ATOM     26  O   UNL     1       7.579  -7.369  19.743  1.00  0.00    -0.508 OA
ATOM     27  H   UNL     1       6.852  -7.324  19.038  1.00  0.00     0.293 HD
ENDBRANCH   8  26
TORSDOF 6
ENDMDL
MODEL 4
REMARK VINA RESULT:    -6.156      2.506      3.778
REMARK INTER + INTRA:          -7.066
REMARK INTER:                  -7.609
REMARK INTRA:                   0.543
REMARK UNBOUND:                 0.349
REMARK SMILES O=c1c(O)c(-c2ccc(O)c(O)c2)oc2cc(O)cc(O)c12
REMARK SMILES IDX 5 1 3 2 2 3 1 4 22 5 20 6 19 7 17 8 16 9 15 10 14 11 6 12
REMARK SMILES IDX 7 13 8 14 9 15 13 16 11 17 10 18 12 20 4 22 21 24 18 26
REMARK H PARENT 10 19 12 21 4 23 21 25 18 27
REMARK Flexibility Score: inf
ROOT
ATOM      1  C   UNL     1      11.503  -4.349  19.829  1.00  0.00     0.180 A 
ATOM      2  C   UNL     1      12.803  -4.875  19.966  1.00  0.00     0.208 A 
ATOM      3  C   UNL     1      13.894  -3.992  19.969  1.00  0.00     0.238 A 
ATOM      4  O   UNL     1      15.063  -4.453  20.081  1.00  0.00    -0.285 OA
ATOM      5  C   UNL     1      13.669  -2.605  19.858  1.00  0.00     0.111 A 
ATOM      6  C   UNL     1      14.713  -1.649  19.857  1.00  0.00     0.134 A 
ATOM      7  C   UNL     1      14.407  -0.285  19.751  1.00  0.00     0.093 A 
ATOM      8  C   UNL     1      13.080   0.142  19.646  1.00  0.00     0.123 A 
ATOM      9  C   UNL     1      12.045  -0.797  19.645  1.00  0.00     0.094 A 
ATOM     10  C   UNL     1      12.330  -2.162  19.749  1.00  0.00     0.146 A 
ATOM     11  O   UNL     1      11.328  -3.035  19.740  1.00  0.00    -0.452 OA
ENDROOT
BRANCH   1  12
ATOM     12  C   UNL     1      10.303  -5.217  19.797  1.00  0.00     0.025 A 
ATOM     13  C   UNL     1       9.010  -4.675  19.730  1.00  0.00     0.016 A 
ATOM     14  C   UNL     1       7.893  -5.513  19.725  1.00  0.00     0.051 A 
ATOM     15  C   UNL     1       8.042  -6.901  19.799  1.00  0.00     0.157 A 
ATOM     16  C   UNL     1      10.454  -6.608  19.893  1.00  0.00     0.062 A 
ATOM     17  C   UNL     1       9.339  -7.457  19.888  1.00  0.00     0.158 A 
BRANCH  15  18
ATOM     18  O   UNL     1       6.885  -7.683  19.785  1.00  0.00    -0.504 OA
ATOM     19  H   UNL     1       6.870  -8.666  19.552  1.00  0.00     0.293 HD
ENDBRANCH  15  18
BRANCH  17  20
ATOM     20  O   UNL     1       9.566  -8.832  19.976  1.00  0.00    -0.504 OA
ATOM     21  H   UNL     1      10.150  -9.350  19.335  1.00  0.00     0.293 HD
ENDBRANCH  17  20
ENDBRANCH   1  12
BRANCH   2  22
ATOM     22  O   UNL     1      12.994  -6.250  20.125  1.00  0.00    -0.502 OA
ATOM     23  H   UNL     1      13.775  -6.631  20.646  1.00  0.00     0.293 HD
ENDBRANCH   2  22
BRANCH   6  24
ATOM     24  O   UNL     1      16.048  -2.042  19.962  1.00  0.00    -0.507 OA
ATOM     25  H   UNL     1      16.648  -1.699  20.702  1.00  0.00     0.293 HD
ENDBRANCH   6  24
BRANCH   8  26
ATOM     26  O   UNL     1      12.803   1.503  19.543  1.00  0.00    -0.508 OA
ATOM     27  H   UNL     1      13.336   2.194  20.060  1.00  0.00     0.293 HD
ENDBRANCH   8  26
TORSDOF 6
ENDMDL
MODEL 5
REMARK VINA RESULT:    -5.626      2.491      4.878
REMARK INTER + INTRA:          -6.428
REMARK INTER:                  -6.879
REMARK INTRA:                   0.451
REMARK UNBOUND:                 0.349
REMARK SMILES O=c1c(O)c(-c2ccc(O)c(O)c2)oc2cc(O)cc(O)c12
REMARK SMILES IDX 5 1 3 2 2 3 1 4 22 5 20 6 19 7 17 8 16 9 15 10 14 11 6 12
REMARK SMILES IDX 7 13 8 14 9 15 13 16 11 17 10 18 12 20 4 22 21 24 18 26
REMARK H PARENT 10 19 12 21 4 23 21 25 18 27
REMARK Flexibility Score: inf
ROOT
ATOM      1  C   UNL     1      11.389  -3.867  19.830  1.00  0.00     0.180 A 
ATOM      2  C   UNL     1      11.201  -2.473  19.742  1.00  0.00     0.208 A 
ATOM      3  C   UNL     1      12.326  -1.635  19.771  1.00  0.00     0.238 A 
ATOM      4  O   UNL     1      12.169  -0.385  19.703  1.00  0.00    -0.285 OA
ATOM      5  C   UNL     1      13.614  -2.200  19.866  1.00  0.00     0.111 A 
ATOM      6  C   UNL     1      14.799  -1.425  19.897  1.00  0.00     0.134 A 
ATOM      7  C   UNL     1      16.045  -2.062  19.984  1.00  0.00     0.093 A 
ATOM      8  C   UNL     1      16.130  -3.456  20.040  1.00  0.00     0.123 A 
ATOM      9  C   UNL     1      14.964  -4.226  20.010  1.00  0.00     0.094 A 
ATOM     10  C   UNL     1      13.712  -3.609  19.925  1.00  0.00     0.146 A 
ATOM     11  O   UNL     1      12.619  -4.364  19.905  1.00  0.00    -0.452 OA
ENDROOT
BRANCH   1  12
ATOM     12  C   UNL     1      10.252  -4.815  19.827  1.00  0.00     0.025 A 
ATOM     13  C   UNL     1       8.922  -4.365  19.845  1.00  0.00     0.016 A 
ATOM     14  C   UNL     1       7.868  -5.279  19.865  1.00  0.00     0.051 A 
ATOM     15  C   UNL     1       8.115  -6.655  19.880  1.00  0.00     0.157 A 
ATOM     16  C   UNL     1      10.503  -6.195  19.863  1.00  0.00     0.062 A 
ATOM     17  C   UNL     1       9.451  -7.121  19.883  1.00  0.00     0.158 A 
BRANCH  15  18
ATOM     18  O   UNL     1       7.016  -7.517  19.896  1.00  0.00    -0.504 OA
ATOM     19  H   UNL     1       6.678  -7.986  20.723  1.00  0.00     0.293 HD
ENDBRANCH  15  18
BRANCH  17  20
ATOM     20  O   UNL     1       9.777  -8.478  19.908  1.00  0.00    -0.504 OA
ATOM     21  H   UNL     1       9.112  -9.222  19.753  1.00  0.00     0.293 HD
ENDBRANCH  17  20
ENDBRANCH   1  12
BRANCH   2  22
ATOM     22  O   UNL     1       9.917  -1.942  19.599  1.00  0.00    -0.502 OA
ATOM     23  H   UNL     1       9.086  -2.521  19.622  1.00  0.00     0.293 HD
ENDBRANCH   2  22
BRANCH   6  24
ATOM     24  O   UNL     1      14.748  -0.031  19.841  1.00  0.00    -0.507 OA
ATOM     25  H   UNL     1      15.569   0.524  19.635  1.00  0.00     0.293 HD
ENDBRANCH   6  24
BRANCH   8  26
ATOM     26  O   UNL     1      17.380  -4.064  20.125  1.00  0.00    -0.508 OA
ATOM     27  H   UNL     1      17.926  -4.038  20.979  1.00  0.00     0.293 HD
ENDBRANCH   8  26
TORSDOF 6
ENDMDL
MODEL 6
REMARK VINA RESULT:    -5.600      3.315      5.922
REMARK INTER + INTRA:          -6.397
REMARK INTER:                  -6.214
REMARK INTRA:                  -0.182
REMARK UNBOUND:                 0.349
REMARK SMILES O=c1c(O)c(-c2ccc(O)c(O)c2)oc2cc(O)cc(O)c12
REMARK SMILES IDX 5 1 3 2 2 3 1 4 22 5 20 6 19 7 17 8 16 9 15 10 14 11 6 12
REMARK SMILES IDX 7 13 8 14 9 15 13 16 11 17 10 18 12 20 4 22 21 24 18 26
REMARK H PARENT 10 19 12 21 4 23 21 25 18 27
REMARK Flexibility Score: inf
ROOT
ATOM      1  C   UNL     1      11.538  -2.292  18.236  1.00  0.00     0.180 A 
ATOM      2  C   UNL     1      12.151  -1.040  18.444  1.00  0.00     0.208 A 
ATOM      3  C   UNL     1      13.443  -1.000  18.989  1.00  0.00     0.238 A 
ATOM      4  O   UNL     1      13.997   0.116  19.190  1.00  0.00    -0.285 OA
ATOM      5  C   UNL     1      14.108  -2.205  19.296  1.00  0.00     0.111 A 
ATOM      6  C   UNL     1      15.413  -2.252  19.845  1.00  0.00     0.134 A 
ATOM      7  C   UNL     1      16.009  -3.492  20.115  1.00  0.00     0.093 A 
ATOM      8  C   UNL     1      15.330  -4.683  19.848  1.00  0.00     0.123 A 
ATOM      9  C   UNL     1      14.041  -4.643  19.308  1.00  0.00     0.094 A 
ATOM     10  C   UNL     1      13.429  -3.417  19.033  1.00  0.00     0.146 A 
ATOM     11  O   UNL     1      12.201  -3.407  18.525  1.00  0.00    -0.452 OA
ENDROOT
BRANCH   1  12
ATOM     12  C   UNL     1      10.170  -2.416  17.684  1.00  0.00     0.025 A 
ATOM     13  C   UNL     1       9.116  -2.941  18.449  1.00  0.00     0.016 A 
ATOM     14  C   UNL     1       7.840  -3.069  17.898  1.00  0.00     0.051 A 
ATOM     15  C   UNL     1       7.592  -2.692  16.574  1.00  0.00     0.157 A 
ATOM     16  C   UNL     1       9.929  -2.056  16.349  1.00  0.00     0.062 A 
ATOM     17  C   UNL     1       8.651  -2.182  15.787  1.00  0.00     0.158 A 
BRANCH  15  18
ATOM     18  O   UNL     1       6.293  -2.843  16.085  1.00  0.00    -0.504 OA
ATOM     19  H   UNL     1       6.074  -3.114  15.137  1.00  0.00     0.293 HD
ENDBRANCH  15  18
BRANCH  17  20
ATOM     20  O   UNL     1       8.483  -1.794  14.457  1.00  0.00    -0.504 OA
ATOM     21  H   UNL     1       8.289  -2.436  13.702  1.00  0.00     0.293 HD
ENDBRANCH  17  20
ENDBRANCH   1  12
BRANCH   2  22
ATOM     22  O   UNL     1      11.490   0.137  18.085  1.00  0.00    -0.502 OA
ATOM     23  H   UNL     1      11.687   1.026  18.529  1.00  0.00     0.293 HD
ENDBRANCH   2  22
BRANCH   6  24
ATOM     24  O   UNL     1      16.118  -1.080  20.121  1.00  0.00    -0.507 OA
ATOM     25  H   UNL     1      15.793  -0.412  20.808  1.00  0.00     0.293 HD
ENDBRANCH   6  24
BRANCH   8  26
ATOM     26  O   UNL     1      15.946  -5.901  20.125  1.00  0.00    -0.508 OA
ATOM     27  H   UNL     1      16.955  -5.997  20.126  1.00  0.00     0.293 HD
ENDBRANCH   8  26
TORSDOF 6
ENDMDL
MODEL 7
REMARK VINA RESULT:    -5.561      4.235      8.031
REMARK INTER + INTRA:          -6.350
REMARK INTER:                  -6.290
REMARK INTRA:                  -0.060
REMARK UNBOUND:                 0.349
REMARK SMILES O=c1c(O)c(-c2ccc(O)c(O)c2)oc2cc(O)cc(O)c12
REMARK SMILES IDX 5 1 3 2 2 3 1 4 22 5 20 6 19 7 17 8 16 9 15 10 14 11 6 12
REMARK SMILES IDX 7 13 8 14 9 15 13 16 11 17 10 18 12 20 4 22 21 24 18 26
REMARK H PARENT 10 19 12 21 4 23 21 25 18 27
REMARK Flexibility Score: inf
ROOT
ATOM      1  C   UNL     1      14.135  -1.408  19.470  1.00  0.00     0.180 A 
ATOM      2  C   UNL     1      13.826  -2.755  19.747  1.00  0.00     0.208 A 
ATOM      3  C   UNL     1      14.876  -3.677  19.876  1.00  0.00     0.238 A 
ATOM      4  O   UNL     1      14.610  -4.888  20.113  1.00  0.00    -0.285 OA
ATOM      5  C   UNL     1      16.209  -3.239  19.749  1.00  0.00     0.111 A 
ATOM      6  C   UNL     1      17.324  -4.104  19.869  1.00  0.00     0.134 A 
ATOM      7  C   UNL     1      18.622  -3.590  19.738  1.00  0.00     0.093 A 
ATOM      8  C   UNL     1      18.827  -2.230  19.490  1.00  0.00     0.123 A 
ATOM      9  C   UNL     1      17.731  -1.371  19.370  1.00  0.00     0.094 A 
ATOM     10  C   UNL     1      16.430  -1.865  19.496  1.00  0.00     0.146 A 
ATOM     11  O   UNL     1      15.405  -1.029  19.371  1.00  0.00    -0.452 OA
ENDROOT
BRANCH   1  12
ATOM     12  C   UNL     1      13.084  -0.379  19.301  1.00  0.00     0.025 A 
ATOM     13  C   UNL     1      13.034   0.759  20.121  1.00  0.00     0.016 A 
ATOM     14  C   UNL     1      12.020   1.704  19.956  1.00  0.00     0.051 A 
ATOM     15  C   UNL     1      11.030   1.527  18.985  1.00  0.00     0.157 A 
ATOM     16  C   UNL     1      12.080  -0.569  18.340  1.00  0.00     0.062 A 
ATOM     17  C   UNL     1      11.057   0.373  18.167  1.00  0.00     0.158 A 
BRANCH  15  18
ATOM     18  O   UNL     1      10.045   2.511  18.869  1.00  0.00    -0.504 OA
ATOM     19  H   UNL     1       9.496   2.854  19.644  1.00  0.00     0.293 HD
ENDBRANCH  15  18
BRANCH  17  20
ATOM     20  O   UNL     1      10.098   0.122  17.184  1.00  0.00    -0.504 OA
ATOM     21  H   UNL     1      10.182   0.422  16.223  1.00  0.00     0.293 HD
ENDBRANCH  17  20
ENDBRANCH   1  12
BRANCH   2  22
ATOM     22  O   UNL     1      12.498  -3.153  19.917  1.00  0.00    -0.502 OA
ATOM     23  H   UNL     1      12.161  -4.058  19.611  1.00  0.00     0.293 HD
ENDBRANCH   2  22
BRANCH   6  24
ATOM     24  O   UNL     1      17.152  -5.467  20.118  1.00  0.00    -0.507 OA
ATOM     25  H   UNL     1      17.658  -5.941  20.856  1.00  0.00     0.293 HD
ENDBRANCH   6  24
BRANCH   8  26
ATOM     26  O   UNL     1      20.126  -1.744  19.365  1.00  0.00    -0.508 OA
ATOM     27  H   UNL     1      20.643  -1.397  20.166  1.00  0.00     0.293 HD
ENDBRANCH   8  26
TORSDOF 6
ENDMDL
MODEL 8
REMARK VINA RESULT:    -5.544      1.452      7.265
REMARK INTER + INTRA:          -6.329
REMARK INTER:                  -6.695
REMARK INTRA:                   0.365
REMARK UNBOUND:                 0.349
REMARK SMILES O=c1c(O)c(-c2ccc(O)c(O)c2)oc2cc(O)cc(O)c12
REMARK SMILES IDX 5 1 3 2 2 3 1 4 22 5 20 6 19 7 17 8 16 9 15 10 14 11 6 12
REMARK SMILES IDX 7 13 8 14 9 15 13 16 11 17 10 18 12 20 4 22 21 24 18 26
REMARK H PARENT 10 19 12 21 4 23 21 25 18 27
REMARK Flexibility Score: inf
ROOT
ATOM      1  C   UNL     1       9.453  -2.522  19.457  1.00  0.00     0.180 A 
ATOM      2  C   UNL     1       8.307  -3.337  19.549  1.00  0.00     0.208 A 
ATOM      3  C   UNL     1       8.470  -4.719  19.722  1.00  0.00     0.238 A 
ATOM      4  O   UNL     1       7.451  -5.460  19.794  1.00  0.00    -0.285 OA
ATOM      5  C   UNL     1       9.768  -5.261  19.821  1.00  0.00     0.111 A 
ATOM      6  C   UNL     1      10.019  -6.643  20.000  1.00  0.00     0.134 A 
ATOM      7  C   UNL     1      11.340  -7.103  20.099  1.00  0.00     0.093 A 
ATOM      8  C   UNL     1      12.413  -6.211  20.023  1.00  0.00     0.123 A 
ATOM      9  C   UNL     1      12.172  -4.846  19.846  1.00  0.00     0.094 A 
ATOM     10  C   UNL     1      10.862  -4.368  19.744  1.00  0.00     0.146 A 
ATOM     11  O   UNL     1      10.660  -3.066  19.570  1.00  0.00    -0.452 OA
ENDROOT
BRANCH   1  12
ATOM     12  C   UNL     1       9.363  -1.058  19.255  1.00  0.00     0.025 A 
ATOM     13  C   UNL     1       8.197  -0.345  19.574  1.00  0.00     0.016 A 
ATOM     14  C   UNL     1       8.128   1.032  19.353  1.00  0.00     0.051 A 
ATOM     15  C   UNL     1       9.211   1.720  18.798  1.00  0.00     0.157 A 
ATOM     16  C   UNL     1      10.443  -0.373  18.679  1.00  0.00     0.062 A 
ATOM     17  C   UNL     1      10.384   1.009  18.452  1.00  0.00     0.158 A 
BRANCH  15  18
ATOM     18  O   UNL     1       9.080   3.098  18.605  1.00  0.00    -0.504 OA
ATOM     19  H   UNL     1       8.867   3.753  19.344  1.00  0.00     0.293 HD
ENDBRANCH  15  18
BRANCH  17  20
ATOM     20  O   UNL     1      11.501   1.625  17.885  1.00  0.00    -0.504 OA
ATOM     21  H   UNL     1      11.707   2.610  17.971  1.00  0.00     0.293 HD
ENDBRANCH  17  20
ENDBRANCH   1  12
BRANCH   2  22
ATOM     22  O   UNL     1       7.032  -2.768  19.497  1.00  0.00    -0.502 OA
ATOM     23  H   UNL     1       6.673  -2.319  18.663  1.00  0.00     0.293 HD
ENDBRANCH   2  22
BRANCH   6  24
ATOM     24  O   UNL     1       8.969  -7.559  20.081  1.00  0.00    -0.507 OA
ATOM     25  H   UNL     1       8.023  -7.268  20.295  1.00  0.00     0.293 HD
ENDBRANCH   6  24
BRANCH   8  26
ATOM     26  O   UNL     1      13.715  -6.694  20.125  1.00  0.00    -0.508 OA
ATOM     27  H   UNL     1      13.929  -7.537  20.647  1.00  0.00     0.293 HD
ENDBRANCH   8  26
TORSDOF 6
ENDMDL
