MODEL 1
REMARK VINA RESULT:    -5.043      0.000      0.000
REMARK INTER + INTRA:         -11.035
REMARK INTER:                  -9.761
REMARK INTRA:                  -1.274
REMARK UNBOUND:                -1.274
REMARK SMILES CCCCCCCCCCCCCCCCCC(=O)[O-]
REMARK SMILES IDX 10 1 11 2 12 3 13 4 14 5 15 6 16 7 17 8 18 9 19 10 20 11
REMARK SMILES IDX 9 12 8 13 7 14 6 15 5 16 4 17 3 18 2 19 1 20
REMARK H PARENT
REMARK Flexibility Score: inf
ROOT
ATOM      1  C   UNL     1      -2.981   9.011  -3.312  1.00  0.00     0.000 C 
ENDROOT
BRANCH   1   2
ATOM      2  C   UNL     1      -4.093  10.074  -3.411  1.00  0.00     0.000 C 
BRANCH   2   3
ATOM      3  C   UNL     1      -4.977   9.979  -4.669  1.00  0.00     0.000 C 
BRANCH   3   4
ATOM      4  C   UNL     1      -5.999   8.827  -4.664  1.00  0.00     0.000 C 
BRANCH   4   5
ATOM      5  C   UNL     1      -5.542   7.619  -5.498  1.00  0.00     0.000 C 
BRANCH   5   6
ATOM      6  C   UNL     1      -6.331   6.342  -5.165  1.00  0.00     0.000 C 
BRANCH   6   7
ATOM      7  C   UNL     1      -7.833   6.472  -5.478  1.00  0.00     0.006 C 
BRANCH   7   8
ATOM      8  C   UNL     1      -8.316   5.391  -6.453  1.00  0.00     0.053 C 
BRANCH   8   9
ATOM      9  C   UNL     1      -7.971   5.728  -7.871  1.00  0.00     0.041 C 
ATOM     10  O   UNL     1      -7.770   4.810  -8.710  1.00  0.00    -0.550 OA
ATOM     11  O   UNL     1      -7.916   7.056  -8.278  1.00  0.00    -0.550 OA
ENDBRANCH   8   9
ENDBRANCH   7   8
ENDBRANCH   6   7
ENDBRANCH   5   6
ENDBRANCH   4   5
ENDBRANCH   3   4
ENDBRANCH   2   3
ENDBRANCH   1   2
BRANCH   1  12
ATOM     12  C   UNL     1      -1.812   9.242  -4.294  1.00  0.00     0.000 C 
BRANCH  12  13
ATOM     13  C   UNL     1      -1.828   8.248  -5.468  1.00  0.00    -0.000 C 
BRANCH  13  14
ATOM     14  C   UNL     1      -1.389   8.891  -6.792  1.00  0.00    -0.000 C 
BRANCH  14  15
ATOM     15  C   UNL     1      -0.116   9.744  -6.643  1.00  0.00    -0.000 C 
BRANCH  15  16
ATOM     16  C   UNL     1       0.687   9.849  -7.951  1.00  0.00    -0.000 C 
BRANCH  16  17
ATOM     17  C   UNL     1       1.451   8.570  -8.345  1.00  0.00    -0.000 C 
BRANCH  17  18
ATOM     18  C   UNL     1       1.984   7.794  -7.128  1.00  0.00    -0.000 C 
BRANCH  18  19
ATOM     19  C   UNL     1       3.032   6.739  -7.514  1.00  0.00    -0.003 C 
ATOM     20  C   UNL     1       3.949   7.207  -8.643  1.00  0.00     0.004 C 
ENDBRANCH  18  19
ENDBRANCH  17  18
ENDBRANCH  16  17
ENDBRANCH  15  16
ENDBRANCH  14  15
ENDBRANCH  13  14
ENDBRANCH  12  13
ENDBRANCH   1  12
TORSDOF 16
ENDMDL
MODEL 2
REMARK VINA RESULT:    -4.893      1.434      1.968
REMARK INTER + INTRA:         -10.745
REMARK INTER:                  -9.403
REMARK INTRA:                  -1.342
REMARK UNBOUND:                -1.274
REMARK SMILES CCCCCCCCCCCCCCCCCC(=O)[O-]
REMARK SMILES IDX 10 1 11 2 12 3 13 4 14 5 15 6 16 7 17 8 18 9 19 10 20 11
REMARK SMILES IDX 9 12 8 13 7 14 6 15 5 16 4 17 3 18 2 19 1 20
REMARK H PARENT
REMARK Flexibility Score: inf
ROOT
ATOM      1  C   UNL     1      -1.747   9.499  -4.097  1.00  0.00     0.000 C 
ENDROOT
BRANCH   1   2
ATOM      2  C   UNL     1      -3.039   9.045  -3.390  1.00  0.00     0.000 C 
BRANCH   2   3
ATOM      3  C   UNL     1      -4.131  10.125  -3.266  1.00  0.00     0.000 C 
BRANCH   3   4
ATOM      4  C   UNL     1      -5.227  10.072  -4.346  1.00  0.00     0.000 C 
BRANCH   4   5
ATOM      5  C   UNL     1      -5.129   8.821  -5.236  1.00  0.00     0.000 C 
BRANCH   5   6
ATOM      6  C   UNL     1      -6.256   7.813  -4.958  1.00  0.00     0.000 C 
BRANCH   6   7
ATOM      7  C   UNL     1      -5.919   6.393  -5.447  1.00  0.00     0.006 C 
BRANCH   7   8
ATOM      8  C   UNL     1      -4.659   6.367  -6.321  1.00  0.00     0.053 C 
BRANCH   8   9
ATOM      9  C   UNL     1      -4.926   5.759  -7.664  1.00  0.00     0.041 C 
ATOM     10  O   UNL     1      -6.110   5.569  -8.050  1.00  0.00    -0.550 OA
ATOM     11  O   UNL     1      -3.869   5.444  -8.509  1.00  0.00    -0.550 OA
ENDBRANCH   8   9
ENDBRANCH   7   8
ENDBRANCH   6   7
ENDBRANCH   5   6
ENDBRANCH   4   5
ENDBRANCH   3   4
ENDBRANCH   2   3
ENDBRANCH   1   2
BRANCH   1  12
ATOM     12  C   UNL     1      -1.069   8.387  -4.925  1.00  0.00     0.000 C 
BRANCH  12  13
ATOM     13  C   UNL     1      -0.279   8.946  -6.121  1.00  0.00    -0.000 C 
BRANCH  13  14
ATOM     14  C   UNL     1      -1.147   9.104  -7.379  1.00  0.00    -0.000 C 
BRANCH  14  15
ATOM     15  C   UNL     1      -0.314   9.406  -8.639  1.00  0.00    -0.000 C 
BRANCH  15  16
ATOM     16  C   UNL     1       1.139   9.794  -8.314  1.00  0.00    -0.000 C 
BRANCH  16  17
ATOM     17  C   UNL     1       2.206   8.849  -8.899  1.00  0.00    -0.000 C 
BRANCH  17  18
ATOM     18  C   UNL     1       2.356   7.546  -8.096  1.00  0.00    -0.000 C 
BRANCH  18  19
ATOM     19  C   UNL     1       3.795   7.008  -8.109  1.00  0.00    -0.003 C 
ATOM     20  C   UNL     1       4.557   7.396  -9.375  1.00  0.00     0.004 C 
ENDBRANCH  18  19
ENDBRANCH  17  18
ENDBRANCH  16  17
ENDBRANCH  15  16
ENDBRANCH  14  15
ENDBRANCH  13  14
ENDBRANCH  12  13
ENDBRANCH   1  12
TORSDOF 16
ENDMDL
MODEL 3
REMARK VINA RESULT:    -4.819      3.906      7.536
REMARK INTER + INTRA:         -10.601
REMARK INTER:                  -8.437
REMARK INTRA:                  -2.164
REMARK UNBOUND:                -1.274
REMARK SMILES CCCCCCCCCCCCCCCCCC(=O)[O-]
REMARK SMILES IDX 10 1 11 2 12 3 13 4 14 5 15 6 16 7 17 8 18 9 19 10 20 11
REMARK SMILES IDX 9 12 8 13 7 14 6 15 5 16 4 17 3 18 2 19 1 20
REMARK H PARENT
REMARK Flexibility Score: inf
ROOT
ATOM      1  C   UNL     1      -3.412   9.035  -3.577  1.00  0.00     0.000 C 
ENDROOT
BRANCH   1   2
ATOM      2  C   UNL     1      -2.159   9.933  -3.571  1.00  0.00     0.000 C 
BRANCH   2   3
ATOM      3  C   UNL     1      -1.061   9.528  -4.574  1.00  0.00     0.000 C 
BRANCH   3   4
ATOM      4  C   UNL     1      -1.494   8.500  -5.636  1.00  0.00     0.000 C 
BRANCH   4   5
ATOM      5  C   UNL     1      -1.245   8.987  -7.074  1.00  0.00     0.000 C 
BRANCH   5   6
ATOM      6  C   UNL     1       0.211   9.426  -7.301  1.00  0.00     0.000 C 
BRANCH   6   7
ATOM      7  C   UNL     1       1.214   8.269  -7.145  1.00  0.00     0.006 C 
BRANCH   7   8
ATOM      8  C   UNL     1       2.286   8.280  -8.242  1.00  0.00     0.053 C 
BRANCH   8   9
ATOM      9  C   UNL     1       3.262   7.156  -8.076  1.00  0.00     0.041 C 
ATOM     10  O   UNL     1       3.106   6.311  -7.155  1.00  0.00    -0.550 OA
ATOM     11  O   UNL     1       4.319   7.015  -8.967  1.00  0.00    -0.550 OA
ENDBRANCH   8   9
ENDBRANCH   7   8
ENDBRANCH   6   7
ENDBRANCH   5   6
ENDBRANCH   4   5
ENDBRANCH   3   4
ENDBRANCH   2   3
ENDBRANCH   1   2
BRANCH   1  12
ATOM     12  C   UNL     1      -4.725   9.805  -3.833  1.00  0.00     0.000 C 
BRANCH  12  13
ATOM     13  C   UNL     1      -4.936  10.124  -5.324  1.00  0.00    -0.000 C 
BRANCH  13  14
ATOM     14  C   UNL     1      -6.271   9.584  -5.860  1.00  0.00    -0.000 C 
BRANCH  14  15
ATOM     15  C   UNL     1      -6.831   8.434  -5.003  1.00  0.00    -0.000 C 
BRANCH  15  16
ATOM     16  C   UNL     1      -6.657   7.057  -5.666  1.00  0.00    -0.000 C 
BRANCH  16  17
ATOM     17  C   UNL     1      -5.392   6.289  -5.237  1.00  0.00    -0.000 C 
BRANCH  17  18
ATOM     18  C   UNL     1      -4.380   6.117  -6.382  1.00  0.00    -0.000 C 
BRANCH  18  19
ATOM     19  C   UNL     1      -4.972   6.483  -7.752  1.00  0.00    -0.003 C 
ATOM     20  C   UNL     1      -4.295   7.700  -8.381  1.00  0.00     0.004 C 
ENDBRANCH  18  19
ENDBRANCH  17  18
ENDBRANCH  16  17
ENDBRANCH  15  16
ENDBRANCH  14  15
ENDBRANCH  13  14
ENDBRANCH  12  13
ENDBRANCH   1  12
TORSDOF 16
ENDMDL
MODEL 4
REMARK VINA RESULT:    -4.758      1.839      2.246
REMARK INTER + INTRA:         -10.483
REMARK INTER:                  -9.314
REMARK INTRA:                  -1.169
REMARK UNBOUND:                -1.274
REMARK SMILES CCCCCCCCCCCCCCCCCC(=O)[O-]
REMARK SMILES IDX 10 1 11 2 12 3 13 4 14 5 15 6 16 7 17 8 18 9 19 10 20 11
REMARK SMILES IDX 9 12 8 13 7 14 6 15 5 16 4 17 3 18 2 19 1 20
REMARK H PARENT
REMARK Flexibility Score: inf
ROOT
ATOM      1  C   UNL     1      -3.920   8.793  -4.491  1.00  0.00     0.000 C 
ENDROOT
BRANCH   1   2
ATOM      2  C   UNL     1      -5.230   9.579  -4.285  1.00  0.00     0.000 C 
BRANCH   2   3
ATOM      3  C   UNL     1      -5.924  10.043  -5.579  1.00  0.00     0.000 C 
BRANCH   3   4
ATOM      4  C   UNL     1      -7.195   9.259  -5.957  1.00  0.00     0.000 C 
BRANCH   4   5
ATOM      5  C   UNL     1      -7.567   8.188  -4.917  1.00  0.00     0.000 C 
BRANCH   5   6
ATOM      6  C   UNL     1      -7.555   6.768  -5.506  1.00  0.00     0.000 C 
BRANCH   6   7
ATOM      7  C   UNL     1      -6.132   6.247  -5.778  1.00  0.00     0.006 C 
BRANCH   7   8
ATOM      8  C   UNL     1      -5.851   6.089  -7.277  1.00  0.00     0.053 C 
BRANCH   8   9
ATOM      9  C   UNL     1      -4.431   5.690  -7.537  1.00  0.00     0.041 C 
ATOM     10  O   UNL     1      -3.500   6.160  -6.831  1.00  0.00    -0.550 OA
ATOM     11  O   UNL     1      -4.139   4.762  -8.529  1.00  0.00    -0.550 OA
ENDBRANCH   8   9
ENDBRANCH   7   8
ENDBRANCH   6   7
ENDBRANCH   5   6
ENDBRANCH   4   5
ENDBRANCH   3   4
ENDBRANCH   2   3
ENDBRANCH   1   2
BRANCH   1  12
ATOM     12  C   UNL     1      -2.826   9.126  -3.454  1.00  0.00     0.000 C 
BRANCH  12  13
ATOM     13  C   UNL     1      -1.581   9.761  -4.097  1.00  0.00    -0.000 C 
BRANCH  13  14
ATOM     14  C   UNL     1      -0.792   8.766  -4.962  1.00  0.00    -0.000 C 
BRANCH  14  15
ATOM     15  C   UNL     1      -0.152   9.431  -6.194  1.00  0.00    -0.000 C 
BRANCH  15  16
ATOM     16  C   UNL     1       0.858   8.515  -6.909  1.00  0.00    -0.000 C 
BRANCH  16  17
ATOM     17  C   UNL     1       1.443   9.094  -8.212  1.00  0.00    -0.000 C 
BRANCH  17  18
ATOM     18  C   UNL     1       2.138   8.029  -9.078  1.00  0.00    -0.000 C 
BRANCH  18  19
ATOM     19  C   UNL     1       3.222   7.259  -8.309  1.00  0.00    -0.003 C 
ATOM     20  C   UNL     1       4.589   7.330  -8.987  1.00  0.00     0.004 C 
ENDBRANCH  18  19
ENDBRANCH  17  18
ENDBRANCH  16  17
ENDBRANCH  15  16
ENDBRANCH  14  15
ENDBRANCH  13  14
ENDBRANCH  12  13
ENDBRANCH   1  12
TORSDOF 16
ENDMDL
MODEL 5
REMARK VINA RESULT:    -4.426      1.830      3.240
REMARK INTER + INTRA:          -9.841
REMARK INTER:                  -7.377
REMARK INTRA:                  -2.464
REMARK UNBOUND:                -1.274
REMARK SMILES CCCCCCCCCCCCCCCCCC(=O)[O-]
REMARK SMILES IDX 10 1 11 2 12 3 13 4 14 5 15 6 16 7 17 8 18 9 19 10 20 11
REMARK SMILES IDX 9 12 8 13 7 14 6 15 5 16 4 17 3 18 2 19 1 20
REMARK H PARENT
REMARK Flexibility Score: inf
ROOT
ATOM      1  C   UNL     1      -1.963   9.416  -3.509  1.00  0.00     0.000 C 
ENDROOT
BRANCH   1   2
ATOM      2  C   UNL     1      -3.445   9.011  -3.386  1.00  0.00     0.000 C 
BRANCH   2   3
ATOM      3  C   UNL     1      -4.452  10.045  -3.923  1.00  0.00     0.000 C 
BRANCH   3   4
ATOM      4  C   UNL     1      -4.981   9.765  -5.342  1.00  0.00     0.000 C 
BRANCH   4   5
ATOM      5  C   UNL     1      -6.420   9.222  -5.346  1.00  0.00     0.000 C 
BRANCH   5   6
ATOM      6  C   UNL     1      -6.499   7.764  -4.864  1.00  0.00     0.000 C 
BRANCH   6   7
ATOM      7  C   UNL     1      -7.577   6.949  -5.601  1.00  0.00     0.006 C 
BRANCH   7   8
ATOM      8  C   UNL     1      -7.363   6.949  -7.120  1.00  0.00     0.053 C 
BRANCH   8   9
ATOM      9  C   UNL     1      -7.520   5.578  -7.703  1.00  0.00     0.041 C 
ATOM     10  O   UNL     1      -6.896   5.259  -8.750  1.00  0.00    -0.550 OA
ATOM     11  O   UNL     1      -8.318   4.637  -7.065  1.00  0.00    -0.550 OA
ENDBRANCH   8   9
ENDBRANCH   7   8
ENDBRANCH   6   7
ENDBRANCH   5   6
ENDBRANCH   4   5
ENDBRANCH   3   4
ENDBRANCH   2   3
ENDBRANCH   1   2
BRANCH   1  12
ATOM     12  C   UNL     1      -1.222   8.716  -4.668  1.00  0.00     0.000 C 
BRANCH  12  13
ATOM     13  C   UNL     1      -0.676   9.716  -5.703  1.00  0.00    -0.000 C 
BRANCH  13  14
ATOM     14  C   UNL     1      -0.002   9.021  -6.896  1.00  0.00    -0.000 C 
BRANCH  14  15
ATOM     15  C   UNL     1      -0.702   9.327  -8.232  1.00  0.00    -0.000 C 
BRANCH  15  16
ATOM     16  C   UNL     1      -2.228   9.471  -8.086  1.00  0.00    -0.000 C 
BRANCH  16  17
ATOM     17  C   UNL     1      -3.053   8.643  -9.090  1.00  0.00    -0.000 C 
BRANCH  17  18
ATOM     18  C   UNL     1      -3.953   7.599  -8.407  1.00  0.00    -0.000 C 
BRANCH  18  19
ATOM     19  C   UNL     1      -3.414   7.164  -7.036  1.00  0.00    -0.003 C 
ATOM     20  C   UNL     1      -3.914   5.783  -6.617  1.00  0.00     0.004 C 
ENDBRANCH  18  19
ENDBRANCH  17  18
ENDBRANCH  16  17
ENDBRANCH  15  16
ENDBRANCH  14  15
ENDBRANCH  13  14
ENDBRANCH  12  13
ENDBRANCH   1  12
TORSDOF 16
ENDMDL
MODEL 6
REMARK VINA RESULT:    -4.335      1.338      2.051
REMARK INTER + INTRA:          -9.664
REMARK INTER:                  -8.354
REMARK INTRA:                  -1.310
REMARK UNBOUND:                -1.274
REMARK SMILES CCCCCCCCCCCCCCCCCC(=O)[O-]
REMARK SMILES IDX 10 1 11 2 12 3 13 4 14 5 15 6 16 7 17 8 18 9 19 10 20 11
REMARK SMILES IDX 9 12 8 13 7 14 6 15 5 16 4 17 3 18 2 19 1 20
REMARK H PARENT
REMARK Flexibility Score: inf
ROOT
ATOM      1  C   UNL     1      -3.248   7.872  -6.731  1.00  0.00     0.000 C 
ENDROOT
BRANCH   1   2
ATOM      2  C   UNL     1      -4.394   8.534  -7.522  1.00  0.00     0.000 C 
BRANCH   2   3
ATOM      3  C   UNL     1      -5.166   9.629  -6.762  1.00  0.00     0.000 C 
BRANCH   3   4
ATOM      4  C   UNL     1      -5.530   9.280  -5.307  1.00  0.00     0.000 C 
BRANCH   4   5
ATOM      5  C   UNL     1      -6.823   8.453  -5.197  1.00  0.00     0.000 C 
BRANCH   5   6
ATOM      6  C   UNL     1      -6.548   6.966  -4.918  1.00  0.00     0.000 C 
BRANCH   6   7
ATOM      7  C   UNL     1      -7.508   6.031  -5.674  1.00  0.00     0.006 C 
BRANCH   7   8
ATOM      8  C   UNL     1      -7.835   6.551  -7.080  1.00  0.00     0.053 C 
BRANCH   8   9
ATOM      9  C   UNL     1      -7.433   5.573  -8.141  1.00  0.00     0.041 C 
ATOM     10  O   UNL     1      -6.312   5.676  -8.706  1.00  0.00    -0.550 OA
ATOM     11  O   UNL     1      -8.277   4.521  -8.474  1.00  0.00    -0.550 OA
ENDBRANCH   8   9
ENDBRANCH   7   8
ENDBRANCH   6   7
ENDBRANCH   5   6
ENDBRANCH   4   5
ENDBRANCH   3   4
ENDBRANCH   2   3
ENDBRANCH   1   2
BRANCH   1  12
ATOM     12  C   UNL     1      -2.083   8.832  -6.407  1.00  0.00     0.000 C 
BRANCH  12  13
ATOM     13  C   UNL     1      -1.050   8.200  -5.457  1.00  0.00    -0.000 C 
BRANCH  13  14
ATOM     14  C   UNL     1       0.391   8.351  -5.968  1.00  0.00    -0.000 C 
BRANCH  14  15
ATOM     15  C   UNL     1       0.463   9.048  -7.339  1.00  0.00    -0.000 C 
BRANCH  15  16
ATOM     16  C   UNL     1       1.725   8.670  -8.134  1.00  0.00    -0.000 C 
BRANCH  16  17
ATOM     17  C   UNL     1       2.304   7.281  -7.803  1.00  0.00    -0.000 C 
BRANCH  17  18
ATOM     18  C   UNL     1       3.800   7.160  -8.142  1.00  0.00    -0.000 C 
BRANCH  18  19
ATOM     19  C   UNL     1       4.110   7.566  -9.591  1.00  0.00    -0.003 C 
ATOM     20  C   UNL     1       5.508   7.139 -10.036  1.00  0.00     0.004 C 
ENDBRANCH  18  19
ENDBRANCH  17  18
ENDBRANCH  16  17
ENDBRANCH  15  16
ENDBRANCH  14  15
ENDBRANCH  13  14
ENDBRANCH  12  13
ENDBRANCH   1  12
TORSDOF 16
ENDMDL
MODEL 7
REMARK VINA RESULT:    -4.223      3.990      8.619
REMARK INTER + INTRA:          -9.447
REMARK INTER:                  -7.913
REMARK INTRA:                  -1.534
REMARK UNBOUND:                -1.274
REMARK SMILES CCCCCCCCCCCCCCCCCC(=O)[O-]
REMARK SMILES IDX 10 1 11 2 12 3 13 4 14 5 15 6 16 7 17 8 18 9 19 10 20 11
REMARK SMILES IDX 9 12 8 13 7 14 6 15 5 16 4 17 3 18 2 19 1 20
REMARK H PARENT
REMARK Flexibility Score: inf
ROOT
ATOM      1  C   UNL     1      -3.901   8.245  -6.228  1.00  0.00     0.000 C 
ENDROOT
BRANCH   1   2
ATOM      2  C   UNL     1      -2.407   7.867  -6.191  1.00  0.00     0.000 C 
BRANCH   2   3
ATOM      3  C   UNL     1      -1.589   8.544  -5.075  1.00  0.00     0.000 C 
BRANCH   3   4
ATOM      4  C   UNL     1      -0.327   9.289  -5.550  1.00  0.00     0.000 C 
BRANCH   4   5
ATOM      5  C   UNL     1       0.418   8.546  -6.671  1.00  0.00     0.000 C 
BRANCH   5   6
ATOM      6  C   UNL     1       0.631   9.423  -7.917  1.00  0.00     0.000 C 
BRANCH   6   7
ATOM      7  C   UNL     1       2.023   9.237  -8.546  1.00  0.00     0.006 C 
BRANCH   7   8
ATOM      8  C   UNL     1       2.264   7.791  -8.997  1.00  0.00     0.053 C 
BRANCH   8   9
ATOM      9  C   UNL     1       3.462   7.192  -8.325  1.00  0.00     0.041 C 
ATOM     10  O   UNL     1       3.340   6.599  -7.221  1.00  0.00    -0.550 OA
ATOM     11  O   UNL     1       4.707   7.249  -8.941  1.00  0.00    -0.550 OA
ENDBRANCH   8   9
ENDBRANCH   7   8
ENDBRANCH   6   7
ENDBRANCH   5   6
ENDBRANCH   4   5
ENDBRANCH   3   4
ENDBRANCH   2   3
ENDBRANCH   1   2
BRANCH   1  12
ATOM     12  C   UNL     1      -4.560   8.305  -4.833  1.00  0.00     0.000 C 
BRANCH  12  13
ATOM     13  C   UNL     1      -5.550   9.477  -4.702  1.00  0.00    -0.000 C 
BRANCH  13  14
ATOM     14  C   UNL     1      -6.292   9.772  -6.015  1.00  0.00    -0.000 C 
BRANCH  14  15
ATOM     15  C   UNL     1      -7.792   9.438  -5.934  1.00  0.00    -0.000 C 
BRANCH  15  16
ATOM     16  C   UNL     1      -8.095   8.286  -4.960  1.00  0.00    -0.000 C 
BRANCH  16  17
ATOM     17  C   UNL     1      -8.971   7.160  -5.543  1.00  0.00    -0.000 C 
BRANCH  17  18
ATOM     18  C   UNL     1      -8.220   5.824  -5.673  1.00  0.00    -0.000 C 
BRANCH  18  19
ATOM     19  C   UNL     1      -6.887   5.969  -6.423  1.00  0.00    -0.003 C 
ATOM     20  C   UNL     1      -7.075   6.163  -7.927  1.00  0.00     0.004 C 
ENDBRANCH  18  19
ENDBRANCH  17  18
ENDBRANCH  16  17
ENDBRANCH  15  16
ENDBRANCH  14  15
ENDBRANCH  13  14
ENDBRANCH  12  13
ENDBRANCH   1  12
TORSDOF 16
ENDMDL
MODEL 8
REMARK VINA RESULT:    -4.208      2.265      6.524
REMARK INTER + INTRA:          -9.418
REMARK INTER:                  -7.280
REMARK INTRA:                  -2.138
REMARK UNBOUND:                -1.274
REMARK SMILES CCCCCCCCCCCCCCCCCC(=O)[O-]
REMARK SMILES IDX 10 1 11 2 12 3 13 4 14 5 15 6 16 7 17 8 18 9 19 10 20 11
REMARK SMILES IDX 9 12 8 13 7 14 6 15 5 16 4 17 3 18 2 19 1 20
REMARK H PARENT
REMARK Flexibility Score: inf
ROOT
ATOM      1  C   UNL     1      -1.784   9.653  -4.033  1.00  0.00     0.000 C 
ENDROOT
BRANCH   1   2
ATOM      2  C   UNL     1      -1.005   8.617  -4.868  1.00  0.00     0.000 C 
BRANCH   2   3
ATOM      3  C   UNL     1      -0.768   9.009  -6.339  1.00  0.00     0.000 C 
BRANCH   3   4
ATOM      4  C   UNL     1      -1.739  10.065  -6.898  1.00  0.00     0.000 C 
BRANCH   4   5
ATOM      5  C   UNL     1      -2.525   9.566  -8.123  1.00  0.00     0.000 C 
BRANCH   5   6
ATOM      6  C   UNL     1      -3.112   8.161  -7.911  1.00  0.00     0.000 C 
BRANCH   6   7
ATOM      7  C   UNL     1      -4.497   7.991  -8.560  1.00  0.00     0.006 C 
BRANCH   7   8
ATOM      8  C   UNL     1      -4.521   6.847  -9.582  1.00  0.00     0.053 C 
BRANCH   8   9
ATOM      9  C   UNL     1      -4.983   5.562  -8.967  1.00  0.00     0.041 C 
ATOM     10  O   UNL     1      -4.171   4.831  -8.338  1.00  0.00    -0.550 OA
ATOM     11  O   UNL     1      -6.320   5.192  -9.047  1.00  0.00    -0.550 OA
ENDBRANCH   8   9
ENDBRANCH   7   8
ENDBRANCH   6   7
ENDBRANCH   5   6
ENDBRANCH   4   5
ENDBRANCH   3   4
ENDBRANCH   2   3
ENDBRANCH   1   2
BRANCH   1  12
ATOM     12  C   UNL     1      -3.052   9.083  -3.362  1.00  0.00     0.000 C 
BRANCH  12  13
ATOM     13  C   UNL     1      -4.231  10.071  -3.404  1.00  0.00    -0.000 C 
BRANCH  13  14
ATOM     14  C   UNL     1      -5.254   9.724  -4.496  1.00  0.00    -0.000 C 
BRANCH  14  15
ATOM     15  C   UNL     1      -5.101   8.282  -5.014  1.00  0.00    -0.000 C 
BRANCH  15  16
ATOM     16  C   UNL     1      -6.364   7.431  -4.792  1.00  0.00    -0.000 C 
BRANCH  16  17
ATOM     17  C   UNL     1      -7.045   6.938  -6.083  1.00  0.00    -0.000 C 
BRANCH  17  18
ATOM     18  C   UNL     1      -8.074   7.940  -6.635  1.00  0.00    -0.000 C 
BRANCH  18  19
ATOM     19  C   UNL     1      -8.742   8.769  -5.528  1.00  0.00    -0.003 C 
ATOM     20  C   UNL     1     -10.001   8.105  -4.973  1.00  0.00     0.004 C 
ENDBRANCH  18  19
ENDBRANCH  17  18
ENDBRANCH  16  17
ENDBRANCH  15  16
ENDBRANCH  14  15
ENDBRANCH  13  14
ENDBRANCH  12  13
ENDBRANCH   1  12
TORSDOF 16
ENDMDL
MODEL 9
REMARK VINA RESULT:    -4.188      1.523      2.487
REMARK INTER + INTRA:          -9.380
REMARK INTER:                  -8.130
REMARK INTRA:                  -1.249
REMARK UNBOUND:                -1.274
REMARK SMILES CCCCCCCCCCCCCCCCCC(=O)[O-]
REMARK SMILES IDX 10 1 11 2 12 3 13 4 14 5 15 6 16 7 17 8 18 9 19 10 20 11
REMARK SMILES IDX 9 12 8 13 7 14 6 15 5 16 4 17 3 18 2 19 1 20
REMARK H PARENT
REMARK Flexibility Score: inf
ROOT
ATOM      1  C   UNL     1      -4.587   6.617  -6.184  1.00  0.00     0.000 C 
ENDROOT
BRANCH   1   2
ATOM      2  C   UNL     1      -5.641   7.695  -5.860  1.00  0.00     0.000 C 
BRANCH   2   3
ATOM      3  C   UNL     1      -6.886   7.186  -5.110  1.00  0.00     0.000 C 
BRANCH   3   4
ATOM      4  C   UNL     1      -7.979   8.244  -4.866  1.00  0.00     0.000 C 
BRANCH   4   5
ATOM      5  C   UNL     1      -9.228   8.023  -5.737  1.00  0.00     0.000 C 
BRANCH   5   6
ATOM      6  C   UNL     1      -9.047   8.551  -7.169  1.00  0.00     0.000 C 
BRANCH   6   7
ATOM      7  C   UNL     1      -9.059   7.429  -8.223  1.00  0.00     0.006 C 
BRANCH   7   8
ATOM      8  C   UNL     1      -9.539   6.094  -7.642  1.00  0.00     0.053 C 
BRANCH   8   9
ATOM      9  C   UNL     1      -8.552   4.995  -7.884  1.00  0.00     0.041 C 
ATOM     10  O   UNL     1      -7.332   5.263  -8.049  1.00  0.00    -0.550 OA
ATOM     11  O   UNL     1      -8.970   3.669  -7.882  1.00  0.00    -0.550 OA
ENDBRANCH   8   9
ENDBRANCH   7   8
ENDBRANCH   6   7
ENDBRANCH   5   6
ENDBRANCH   4   5
ENDBRANCH   3   4
ENDBRANCH   2   3
ENDBRANCH   1   2
BRANCH   1  12
ATOM     12  C   UNL     1      -3.270   7.188  -6.751  1.00  0.00     0.000 C 
BRANCH  12  13
ATOM     13  C   UNL     1      -2.773   8.412  -5.962  1.00  0.00    -0.000 C 
BRANCH  13  14
ATOM     14  C   UNL     1      -1.350   8.222  -5.413  1.00  0.00    -0.000 C 
BRANCH  14  15
ATOM     15  C   UNL     1      -0.362   9.270  -5.956  1.00  0.00    -0.000 C 
BRANCH  15  16
ATOM     16  C   UNL     1      -0.248   9.243  -7.491  1.00  0.00    -0.000 C 
BRANCH  16  17
ATOM     17  C   UNL     1       1.141   8.846  -8.028  1.00  0.00    -0.000 C 
BRANCH  17  18
ATOM     18  C   UNL     1       1.872   7.848  -7.114  1.00  0.00    -0.000 C 
BRANCH  18  19
ATOM     19  C   UNL     1       2.943   7.040  -7.863  1.00  0.00    -0.003 C 
ATOM     20  C   UNL     1       3.607   7.837  -8.984  1.00  0.00     0.004 C 
ENDBRANCH  18  19
ENDBRANCH  17  18
ENDBRANCH  16  17
ENDBRANCH  15  16
ENDBRANCH  14  15
ENDBRANCH  13  14
ENDBRANCH  12  13
ENDBRANCH   1  12
TORSDOF 16
ENDMDL
