MODEL 1
REMARK VINA RESULT:    -5.330      0.000      0.000
REMARK INTER + INTRA:          -5.486
REMARK INTER:                  -5.486
REMARK INTRA:                   0.000
REMARK UNBOUND:                 0.000
REMARK SMILES O=c1ccc2ccc(O)cc2o1
REMARK SMILES IDX 6 1 7 2 8 3 10 4 11 5 5 6 4 7 3 8 2 9 1 10 12 11 9 12
REMARK H PARENT 9 13
REMARK Flexibility Score: inf
ROOT
ATOM      1  C   UNL     1      20.548  22.685  40.246  1.00  0.00     0.016 A 
ATOM      2  C   UNL     1      20.631  21.459  39.578  1.00  0.00     0.047 A 
ATOM      3  C   UNL     1      20.245  21.357  38.236  1.00  0.00     0.119 A 
ATOM      4  C   UNL     1      19.772  22.489  37.556  1.00  0.00     0.094 A 
ATOM      5  C   UNL     1      19.685  23.720  38.216  1.00  0.00     0.142 A 
ATOM      6  C   UNL     1      20.076  23.819  39.570  1.00  0.00     0.018 A 
ATOM      7  C   UNL     1      19.978  25.062  40.203  1.00  0.00     0.019 A 
ATOM      8  C   UNL     1      19.502  26.159  39.485  1.00  0.00     0.094 A 
ATOM      9  C   UNL     1      19.133  25.986  38.147  1.00  0.00     0.336 A 
ATOM     10  O   UNL     1      18.702  26.964  37.484  1.00  0.00    -0.246 OA
ATOM     11  O   UNL     1      19.237  24.792  37.568  1.00  0.00    -0.423 OA
ENDROOT
BRANCH   3  12
ATOM     12  O   UNL     1      20.336  20.127  37.588  1.00  0.00    -0.508 OA
ATOM     13  H   UNL     1      20.147  19.258  38.073  1.00  0.00     0.293 HD
ENDBRANCH   3  12
TORSDOF 1
ENDMDL
MODEL 2
REMARK VINA RESULT:    -5.097      1.792      4.848
REMARK INTER + INTRA:          -5.246
REMARK INTER:                  -5.246
REMARK INTRA:                   0.000
REMARK UNBOUND:                 0.000
REMARK SMILES O=c1ccc2ccc(O)cc2o1
REMARK SMILES IDX 6 1 7 2 8 3 10 4 11 5 5 6 4 7 3 8 2 9 1 10 12 11 9 12
REMARK H PARENT 9 13
REMARK Flexibility Score: inf
ROOT
ATOM      1  C   UNL     1      19.139  25.325  37.960  1.00  0.00     0.016 A 
ATOM      2  C   UNL     1      19.161  26.558  38.620  1.00  0.00     0.047 A 
ATOM      3  C   UNL     1      19.700  26.661  39.908  1.00  0.00     0.119 A 
ATOM      4  C   UNL     1      20.220  25.523  40.542  1.00  0.00     0.094 A 
ATOM      5  C   UNL     1      20.202  24.285  39.890  1.00  0.00     0.142 A 
ATOM      6  C   UNL     1      19.657  24.186  38.590  1.00  0.00     0.018 A 
ATOM      7  C   UNL     1      19.653  22.936  37.963  1.00  0.00     0.019 A 
ATOM      8  C   UNL     1      20.181  21.833  38.633  1.00  0.00     0.094 A 
ATOM      9  C   UNL     1      20.703  22.006  39.920  1.00  0.00     0.336 A 
ATOM     10  O   UNL     1      21.184  21.023  40.540  1.00  0.00    -0.246 OA
ATOM     11  O   UNL     1      20.696  23.207  40.493  1.00  0.00    -0.423 OA
ENDROOT
BRANCH   3  12
ATOM     12  O   UNL     1      19.714  27.898  40.549  1.00  0.00    -0.508 OA
ATOM     13  H   UNL     1      18.981  28.581  40.398  1.00  0.00     0.293 HD
ENDBRANCH   3  12
TORSDOF 1
ENDMDL
MODEL 3
REMARK VINA RESULT:    -4.973      0.904      4.223
REMARK INTER + INTRA:          -5.118
REMARK INTER:                  -5.118
REMARK INTRA:                   0.000
REMARK UNBOUND:                 0.000
REMARK SMILES O=c1ccc2ccc(O)cc2o1
REMARK SMILES IDX 6 1 7 2 8 3 10 4 11 5 5 6 4 7 3 8 2 9 1 10 12 11 9 12
REMARK H PARENT 9 13
REMARK Flexibility Score: inf
ROOT
ATOM      1  C   UNL     1      19.850  25.419  39.848  1.00  0.00     0.016 A 
ATOM      2  C   UNL     1      19.373  26.409  38.984  1.00  0.00     0.047 A 
ATOM      3  C   UNL     1      19.034  26.092  37.663  1.00  0.00     0.119 A 
ATOM      4  C   UNL     1      19.172  24.774  37.203  1.00  0.00     0.094 A 
ATOM      5  C   UNL     1      19.649  23.776  38.060  1.00  0.00     0.142 A 
ATOM      6  C   UNL     1      19.990  24.101  39.392  1.00  0.00     0.018 A 
ATOM      7  C   UNL     1      20.464  23.083  40.226  1.00  0.00     0.019 A 
ATOM      8  C   UNL     1      20.584  21.788  39.723  1.00  0.00     0.094 A 
ATOM      9  C   UNL     1      20.227  21.540  38.393  1.00  0.00     0.336 A 
ATOM     10  O   UNL     1      20.329  20.378  37.922  1.00  0.00    -0.246 OA
ATOM     11  O   UNL     1      19.779  22.527  37.621  1.00  0.00    -0.423 OA
ENDROOT
BRANCH   3  12
ATOM     12  O   UNL     1      18.560  27.092  36.817  1.00  0.00    -0.508 OA
ATOM     13  H   UNL     1      18.008  26.874  35.996  1.00  0.00     0.293 HD
ENDBRANCH   3  12
TORSDOF 1
ENDMDL
MODEL 4
REMARK VINA RESULT:    -4.827      1.791      2.513
REMARK INTER + INTRA:          -4.969
REMARK INTER:                  -4.969
REMARK INTRA:                   0.000
REMARK UNBOUND:                 0.000
REMARK SMILES O=c1ccc2ccc(O)cc2o1
REMARK SMILES IDX 6 1 7 2 8 3 10 4 11 5 5 6 4 7 3 8 2 9 1 10 12 11 9 12
REMARK H PARENT 9 13
REMARK Flexibility Score: inf
ROOT
ATOM      1  C   UNL     1      19.432  24.004  37.065  1.00  0.00     0.016 A 
ATOM      2  C   UNL     1      19.812  22.669  36.894  1.00  0.00     0.047 A 
ATOM      3  C   UNL     1      20.190  21.894  37.997  1.00  0.00     0.119 A 
ATOM      4  C   UNL     1      20.188  22.457  39.282  1.00  0.00     0.094 A 
ATOM      5  C   UNL     1      19.810  23.792  39.463  1.00  0.00     0.142 A 
ATOM      6  C   UNL     1      19.430  24.571  38.347  1.00  0.00     0.018 A 
ATOM      7  C   UNL     1      19.057  25.901  38.560  1.00  0.00     0.019 A 
ATOM      8  C   UNL     1      19.071  26.417  39.855  1.00  0.00     0.094 A 
ATOM      9  C   UNL     1      19.459  25.587  40.912  1.00  0.00     0.336 A 
ATOM     10  O   UNL     1      19.478  26.035  42.088  1.00  0.00    -0.246 OA
ATOM     11  O   UNL     1      19.809  24.324  40.683  1.00  0.00    -0.423 OA
ENDROOT
BRANCH   3  12
ATOM     12  O   UNL     1      20.564  20.565  37.806  1.00  0.00    -0.508 OA
ATOM     13  H   UNL     1      21.529  20.269  37.893  1.00  0.00     0.293 HD
ENDBRANCH   3  12
TORSDOF 1
ENDMDL
MODEL 5
REMARK VINA RESULT:    -4.797      6.013      7.897
REMARK INTER + INTRA:          -4.937
REMARK INTER:                  -4.937
REMARK INTRA:                   0.000
REMARK UNBOUND:                 0.000
REMARK SMILES O=c1ccc2ccc(O)cc2o1
REMARK SMILES IDX 6 1 7 2 8 3 10 4 11 5 5 6 4 7 3 8 2 9 1 10 12 11 9 12
REMARK H PARENT 9 13
REMARK Flexibility Score: inf
ROOT
ATOM      1  C   UNL     1      16.398  26.111  46.200  1.00  0.00     0.016 A 
ATOM      2  C   UNL     1      16.829  27.380  46.601  1.00  0.00     0.047 A 
ATOM      3  C   UNL     1      17.796  28.066  45.857  1.00  0.00     0.119 A 
ATOM      4  C   UNL     1      18.336  27.481  44.702  1.00  0.00     0.094 A 
ATOM      5  C   UNL     1      17.911  26.212  44.294  1.00  0.00     0.142 A 
ATOM      6  C   UNL     1      16.935  25.523  45.047  1.00  0.00     0.018 A 
ATOM      7  C   UNL     1      16.530  24.256  44.614  1.00  0.00     0.019 A 
ATOM      8  C   UNL     1      17.096  23.715  43.460  1.00  0.00     0.094 A 
ATOM      9  C   UNL     1      18.058  24.455  42.764  1.00  0.00     0.336 A 
ATOM     10  O   UNL     1      18.579  23.984  41.721  1.00  0.00    -0.246 OA
ATOM     11  O   UNL     1      18.425  25.659  43.198  1.00  0.00    -0.423 OA
ENDROOT
BRANCH   3  12
ATOM     12  O   UNL     1      18.212  29.329  46.273  1.00  0.00    -0.508 OA
ATOM     13  H   UNL     1      19.177  29.515  46.518  1.00  0.00     0.293 HD
ENDBRANCH   3  12
TORSDOF 1
ENDMDL
MODEL 6
REMARK VINA RESULT:    -4.691      5.059      6.658
REMARK INTER + INTRA:          -4.828
REMARK INTER:                  -4.828
REMARK INTRA:                   0.000
REMARK UNBOUND:                 0.000
REMARK SMILES O=c1ccc2ccc(O)cc2o1
REMARK SMILES IDX 6 1 7 2 8 3 10 4 11 5 5 6 4 7 3 8 2 9 1 10 12 11 9 12
REMARK H PARENT 9 13
REMARK Flexibility Score: inf
ROOT
ATOM      1  C   UNL     1      16.716  25.972  43.115  1.00  0.00     0.016 A 
ATOM      2  C   UNL     1      16.442  25.885  44.483  1.00  0.00     0.047 A 
ATOM      3  C   UNL     1      17.430  26.200  45.424  1.00  0.00     0.119 A 
ATOM      4  C   UNL     1      18.702  26.605  44.994  1.00  0.00     0.094 A 
ATOM      5  C   UNL     1      18.986  26.695  43.627  1.00  0.00     0.142 A 
ATOM      6  C   UNL     1      17.986  26.377  42.681  1.00  0.00     0.018 A 
ATOM      7  C   UNL     1      18.299  26.476  41.322  1.00  0.00     0.019 A 
ATOM      8  C   UNL     1      19.577  26.883  40.942  1.00  0.00     0.094 A 
ATOM      9  C   UNL     1      20.517  27.182  41.934  1.00  0.00     0.336 A 
ATOM     10  O   UNL     1      21.675  27.552  41.611  1.00  0.00    -0.246 OA
ATOM     11  O   UNL     1      20.193  27.080  43.221  1.00  0.00    -0.423 OA
ENDROOT
BRANCH   3  12
ATOM     12  O   UNL     1      17.137  26.107  46.783  1.00  0.00    -0.508 OA
ATOM     13  H   UNL     1      17.689  26.595  47.478  1.00  0.00     0.293 HD
ENDBRANCH   3  12
TORSDOF 1
ENDMDL
MODEL 7
REMARK VINA RESULT:    -4.687      1.455      2.309
REMARK INTER + INTRA:          -4.824
REMARK INTER:                  -4.824
REMARK INTRA:                   0.000
REMARK UNBOUND:                 0.000
REMARK SMILES O=c1ccc2ccc(O)cc2o1
REMARK SMILES IDX 6 1 7 2 8 3 10 4 11 5 5 6 4 7 3 8 2 9 1 10 12 11 9 12
REMARK H PARENT 9 13
REMARK Flexibility Score: inf
ROOT
ATOM      1  C   UNL     1      20.001  21.793  37.739  1.00  0.00     0.016 A 
ATOM      2  C   UNL     1      20.502  21.122  38.860  1.00  0.00     0.047 A 
ATOM      3  C   UNL     1      20.744  21.817  40.051  1.00  0.00     0.119 A 
ATOM      4  C   UNL     1      20.485  23.194  40.123  1.00  0.00     0.094 A 
ATOM      5  C   UNL     1      19.984  23.874  39.007  1.00  0.00     0.142 A 
ATOM      6  C   UNL     1      19.740  23.169  37.807  1.00  0.00     0.018 A 
ATOM      7  C   UNL     1      19.240  23.875  36.710  1.00  0.00     0.019 A 
ATOM      8  C   UNL     1      18.997  25.243  36.829  1.00  0.00     0.094 A 
ATOM      9  C   UNL     1      19.262  25.876  38.049  1.00  0.00     0.336 A 
ATOM     10  O   UNL     1      19.049  27.109  38.176  1.00  0.00    -0.246 OA
ATOM     11  O   UNL     1      19.738  25.179  39.078  1.00  0.00    -0.423 OA
ENDROOT
BRANCH   3  12
ATOM     12  O   UNL     1      21.243  21.131  41.156  1.00  0.00    -0.508 OA
ATOM     13  H   UNL     1      21.236  21.542  42.082  1.00  0.00     0.293 HD
ENDBRANCH   3  12
TORSDOF 1
ENDMDL
MODEL 8
REMARK VINA RESULT:    -4.631      5.719      7.258
REMARK INTER + INTRA:          -4.766
REMARK INTER:                  -4.766
REMARK INTRA:                   0.000
REMARK UNBOUND:                 0.000
REMARK SMILES O=c1ccc2ccc(O)cc2o1
REMARK SMILES IDX 6 1 7 2 8 3 10 4 11 5 5 6 4 7 3 8 2 9 1 10 12 11 9 12
REMARK H PARENT 9 13
REMARK Flexibility Score: inf
ROOT
ATOM      1  C   UNL     1      18.063  26.078  42.052  1.00  0.00     0.016 A 
ATOM      2  C   UNL     1      19.323  26.593  41.729  1.00  0.00     0.047 A 
ATOM      3  C   UNL     1      20.158  27.100  42.732  1.00  0.00     0.119 A 
ATOM      4  C   UNL     1      19.730  27.093  44.068  1.00  0.00     0.094 A 
ATOM      5  C   UNL     1      18.471  26.581  44.400  1.00  0.00     0.142 A 
ATOM      6  C   UNL     1      17.632  26.069  43.385  1.00  0.00     0.018 A 
ATOM      7  C   UNL     1      16.380  25.563  43.748  1.00  0.00     0.019 A 
ATOM      8  C   UNL     1      15.999  25.578  45.089  1.00  0.00     0.094 A 
ATOM      9  C   UNL     1      16.882  26.100  46.040  1.00  0.00     0.336 A 
ATOM     10  O   UNL     1      16.556  26.121  47.255  1.00  0.00    -0.246 OA
ATOM     11  O   UNL     1      18.069  26.575  45.668  1.00  0.00    -0.423 OA
ENDROOT
BRANCH   3  12
ATOM     12  O   UNL     1      21.409  27.608  42.390  1.00  0.00    -0.508 OA
ATOM     13  H   UNL     1      21.537  28.201  41.579  1.00  0.00     0.293 HD
ENDBRANCH   3  12
TORSDOF 1
ENDMDL
