MODEL 1
REMARK VINA RESULT:    -6.921      0.000      0.000
REMARK INTER + INTRA:          -8.404
REMARK INTER:                  -8.135
REMARK INTRA:                  -0.269
REMARK UNBOUND:                -0.269
REMARK SMILES O=c1c(O)c(-c2ccc(O)cc2)oc2cc(O)cc(O)c12
REMARK SMILES IDX 5 1 3 2 2 3 1 4 21 5 19 6 18 7 16 8 15 9 14 10 13 11 6 12
REMARK SMILES IDX 7 13 8 14 9 15 12 16 11 17 10 18 4 20 20 22 17 24
REMARK H PARENT 10 19 4 21 20 23 17 25
REMARK Flexibility Score: inf
ROOT
ATOM      1  C   UNL     1     -17.135 -35.496 -14.380  1.00  0.00     0.180 A 
ATOM      2  C   UNL     1     -16.495 -36.174 -15.432  1.00  0.00     0.208 A 
ATOM      3  C   UNL     1     -15.158 -35.866 -15.727  1.00  0.00     0.238 A 
ATOM      4  O   UNL     1     -14.570 -36.529 -16.620  1.00  0.00    -0.285 OA
ATOM      5  C   UNL     1     -14.492 -34.845 -15.005  1.00  0.00     0.111 A 
ATOM      6  C   UNL     1     -13.152 -34.418 -15.250  1.00  0.00     0.134 A 
ATOM      7  C   UNL     1     -12.563 -33.472 -14.402  1.00  0.00     0.093 A 
ATOM      8  C   UNL     1     -13.288 -32.889 -13.359  1.00  0.00     0.123 A 
ATOM      9  C   UNL     1     -14.613 -33.259 -13.147  1.00  0.00     0.094 A 
ATOM     10  C   UNL     1     -15.216 -34.228 -13.952  1.00  0.00     0.146 A 
ATOM     11  O   UNL     1     -16.476 -34.565 -13.699  1.00  0.00    -0.452 OA
ENDROOT
BRANCH   1  12
ATOM     12  C   UNL     1     -18.538 -35.774 -13.999  1.00  0.00     0.021 A 
ATOM     13  C   UNL     1     -19.548 -34.872 -14.371  1.00  0.00     0.016 A 
ATOM     14  C   UNL     1     -20.876 -35.103 -14.002  1.00  0.00     0.047 A 
ATOM     15  C   UNL     1     -21.210 -36.231 -13.245  1.00  0.00     0.115 A 
ATOM     16  C   UNL     1     -18.877 -36.896 -13.220  1.00  0.00     0.016 A 
ATOM     17  C   UNL     1     -20.207 -37.125 -12.851  1.00  0.00     0.047 A 
BRANCH  15  18
ATOM     18  O   UNL     1     -22.538 -36.449 -12.885  1.00  0.00    -0.508 OA
ATOM     19  H   UNL     1     -23.140 -37.057 -13.429  1.00  0.00     0.293 HD
ENDBRANCH  15  18
ENDBRANCH   1  12
BRANCH   2  20
ATOM     20  O   UNL     1     -17.192 -37.125 -16.182  1.00  0.00    -0.502 OA
ATOM     21  H   UNL     1     -16.950 -37.346 -17.141  1.00  0.00     0.293 HD
ENDBRANCH   2  20
BRANCH   6  22
ATOM     22  O   UNL     1     -12.369 -34.869 -16.317  1.00  0.00    -0.507 OA
ATOM     23  H   UNL     1     -12.526 -35.723 -16.829  1.00  0.00     0.293 HD
ENDBRANCH   6  22
BRANCH   8  24
ATOM     24  O   UNL     1     -12.699 -31.935 -12.532  1.00  0.00    -0.508 OA
ATOM     25  H   UNL     1     -11.756 -31.602 -12.694  1.00  0.00     0.293 HD
ENDBRANCH   8  24
TORSDOF 5
ENDMDL
MODEL 2
REMARK VINA RESULT:    -6.689      2.138      6.088
REMARK INTER + INTRA:          -8.131
REMARK INTER:                  -8.007
REMARK INTRA:                  -0.124
REMARK UNBOUND:                -0.269
REMARK SMILES O=c1c(O)c(-c2ccc(O)cc2)oc2cc(O)cc(O)c12
REMARK SMILES IDX 5 1 3 2 2 3 1 4 21 5 19 6 18 7 16 8 15 9 14 10 13 11 6 12
REMARK SMILES IDX 7 13 8 14 9 15 12 16 11 17 10 18 4 20 20 22 17 24
REMARK H PARENT 10 19 4 21 20 23 17 25
REMARK Flexibility Score: inf
ROOT
ATOM      1  C   UNL     1     -14.498 -33.285 -13.088  1.00  0.00     0.180 A 
ATOM      2  C   UNL     1     -13.477 -33.454 -14.038  1.00  0.00     0.208 A 
ATOM      3  C   UNL     1     -13.667 -34.366 -15.088  1.00  0.00     0.238 A 
ATOM      4  O   UNL     1     -12.781 -34.457 -15.976  1.00  0.00    -0.285 OA
ATOM      5  C   UNL     1     -14.853 -35.140 -15.144  1.00  0.00     0.111 A 
ATOM      6  C   UNL     1     -15.132 -36.127 -16.137  1.00  0.00     0.134 A 
ATOM      7  C   UNL     1     -16.383 -36.756 -16.153  1.00  0.00     0.093 A 
ATOM      8  C   UNL     1     -17.341 -36.479 -15.173  1.00  0.00     0.123 A 
ATOM      9  C   UNL     1     -17.057 -35.559 -14.169  1.00  0.00     0.094 A 
ATOM     10  C   UNL     1     -15.832 -34.887 -14.148  1.00  0.00     0.146 A 
ATOM     11  O   UNL     1     -15.612 -34.001 -13.184  1.00  0.00    -0.452 OA
ENDROOT
BRANCH   1  12
ATOM     12  C   UNL     1     -14.377 -32.333 -11.960  1.00  0.00     0.021 A 
ATOM     13  C   UNL     1     -13.413 -32.558 -10.965  1.00  0.00     0.016 A 
ATOM     14  C   UNL     1     -13.297 -31.684  -9.880  1.00  0.00     0.047 A 
ATOM     15  C   UNL     1     -14.152 -30.583  -9.768  1.00  0.00     0.115 A 
ATOM     16  C   UNL     1     -15.248 -31.235 -11.832  1.00  0.00     0.016 A 
ATOM     17  C   UNL     1     -15.131 -30.363 -10.745  1.00  0.00     0.047 A 
BRANCH  15  18
ATOM     18  O   UNL     1     -14.025 -29.721  -8.682  1.00  0.00    -0.508 OA
ATOM     19  H   UNL     1     -14.174 -28.723  -8.779  1.00  0.00     0.293 HD
ENDBRANCH  15  18
ENDBRANCH   1  12
BRANCH   2  20
ATOM     20  O   UNL     1     -12.283 -32.737 -13.923  1.00  0.00    -0.502 OA
ATOM     21  H   UNL     1     -12.199 -31.909 -13.344  1.00  0.00     0.293 HD
ENDBRANCH   2  20
BRANCH   6  22
ATOM     22  O   UNL     1     -14.216 -36.544 -17.108  1.00  0.00    -0.507 OA
ATOM     23  H   UNL     1     -13.622 -37.356 -17.031  1.00  0.00     0.293 HD
ENDBRANCH   6  22
BRANCH   8  24
ATOM     24  O   UNL     1     -18.577 -37.123 -15.187  1.00  0.00    -0.508 OA
ATOM     25  H   UNL     1     -19.206 -37.045 -15.977  1.00  0.00     0.293 HD
ENDBRANCH   8  24
TORSDOF 5
ENDMDL
