MODEL 1
REMARK VINA RESULT:    -8.657      0.000      0.000
REMARK INTER + INTRA:          -8.754
REMARK INTER:                  -9.416
REMARK INTRA:                   0.662
REMARK UNBOUND:                 0.662
REMARK SMILES C[C@H]1[C@H](C)CC[C@]2(C(=O)[O-])CC[C@]3(C)C(=CC[C@H]4[C@]5(C)CC[C@@H](O)C(C)(C)[C@@H]5CC[C@@]43C)[C@@H]12
REMARK SMILES IDX 7 1 6 2 11 3 33 4 5 5 12 6 15 7 2 8 3 9 13 10 16 11 1 12
REMARK SMILES IDX 4 13 14 14 31 15 17 16 18 17 30 18 32 19 19 20 29 21 28 22
REMARK SMILES IDX 21 23 20 24 25 25 22 26 23 27 26 28 27 29 8 30 9 31 10 32
REMARK SMILES IDX 24 33
REMARK H PARENT 24 34
REMARK Flexibility Score: inf
ROOT
ATOM      1  C   UNL     1     168.593 142.578 151.682  1.00  0.00     0.017 C 
ATOM      2  C   UNL     1     167.692 142.196 150.468  1.00  0.00     0.014 C 
ATOM      3  C   UNL     1     167.750 142.385 152.977  1.00  0.00     0.014 C 
ATOM      4  C   UNL     1     169.010 144.080 151.503  1.00  0.00     0.030 C 
ATOM      5  C   UNL     1     168.338 142.465 149.097  1.00  0.00     0.004 C 
ATOM      6  C   UNL     1     168.375 143.025 154.237  1.00  0.00     0.013 C 
ATOM      7  C   UNL     1     169.590 144.679 152.801  1.00  0.00    -0.063 C 
ATOM      8  C   UNL     1     169.767 144.337 150.148  1.00  0.00    -0.003 C 
ATOM      9  C   UNL     1     168.883 143.908 148.942  1.00  0.00    -0.011 C 
ATOM     10  C   UNL     1     168.723 144.543 154.086  1.00  0.00    -0.006 C 
ATOM     11  C   UNL     1     170.820 145.261 152.824  1.00  0.00    -0.027 C 
ATOM     12  C   UNL     1     171.162 143.670 150.012  1.00  0.00     0.008 C 
ATOM     13  C   UNL     1     167.750 144.908 148.646  1.00  0.00     0.008 C 
ATOM     14  C   UNL     1     167.375 145.317 153.873  1.00  0.00     0.017 C 
ATOM     15  C   UNL     1     169.495 145.142 155.380  1.00  0.00    -0.020 C 
ATOM     16  C   UNL     1     171.645 145.450 154.072  1.00  0.00     0.032 C 
ATOM     17  C   UNL     1     171.007 144.723 155.274  1.00  0.00     0.006 C 
ATOM     18  C   UNL     1     168.911 144.654 156.750  1.00  0.00     0.008 C 
ATOM     19  C   UNL     1     169.351 146.710 155.368  1.00  0.00     0.012 C 
ATOM     20  C   UNL     1     171.852 144.682 156.618  1.00  0.00    -0.025 C 
ATOM     21  C   UNL     1     169.637 143.445 157.351  1.00  0.00     0.005 C 
ATOM     22  C   UNL     1     171.134 143.733 157.685  1.00  0.00     0.003 C 
ATOM     23  C   UNL     1     173.297 144.190 156.270  1.00  0.00     0.010 C 
ATOM     24  C   UNL     1     172.011 146.095 157.247  1.00  0.00     0.012 C 
ATOM     25  C   UNL     1     171.921 142.419 158.068  1.00  0.00    -0.006 C 
ATOM     26  C   UNL     1     174.128 143.718 157.464  1.00  0.00     0.033 C 
ATOM     27  C   UNL     1     173.397 142.781 158.450  1.00  0.00     0.120 C 
ATOM     28  C   UNL     1     171.893 141.350 156.933  1.00  0.00     0.014 C 
ATOM     29  C   UNL     1     171.266 141.746 159.311  1.00  0.00     0.014 C 
ENDROOT
BRANCH   1  30
ATOM     30  C   UNL     1     169.789 141.634 151.782  1.00  0.00     0.048 C 
ATOM     31  O   UNL     1     170.088 140.875 150.818  1.00  0.00    -0.550 OA
ATOM     32  O   UNL     1     170.633 141.674 152.884  1.00  0.00    -0.550 OA
ENDBRANCH   1  30
BRANCH  27  33
ATOM     33  O   UNL     1     173.439 143.387 159.728  1.00  0.00    -0.393 OA
ATOM     34  H   UNL     1     172.502 143.489 160.047  1.00  0.00     0.210 HD
ENDBRANCH  27  33
TORSDOF 2
ENDMDL
MODEL 2
REMARK VINA RESULT:    -8.473      2.784      5.376
REMARK INTER + INTRA:          -8.555
REMARK INTER:                  -8.985
REMARK INTRA:                   0.430
REMARK UNBOUND:                 0.662
REMARK SMILES C[C@H]1[C@H](C)CC[C@]2(C(=O)[O-])CC[C@]3(C)C(=CC[C@H]4[C@]5(C)CC[C@@H](O)C(C)(C)[C@@H]5CC[C@@]43C)[C@@H]12
REMARK SMILES IDX 7 1 6 2 11 3 33 4 5 5 12 6 15 7 2 8 3 9 13 10 16 11 1 12
REMARK SMILES IDX 4 13 14 14 31 15 17 16 18 17 30 18 32 19 19 20 29 21 28 22
REMARK SMILES IDX 21 23 20 24 25 25 22 26 23 27 26 28 27 29 8 30 9 31 10 32
REMARK SMILES IDX 24 33
REMARK H PARENT 24 34
REMARK Flexibility Score: inf
ROOT
ATOM      1  C   UNL     1     170.209 145.306 154.175  1.00  0.00     0.017 C 
ATOM      2  C   UNL     1     169.165 145.385 153.019  1.00  0.00     0.014 C 
ATOM      3  C   UNL     1     171.610 145.613 153.568  1.00  0.00     0.014 C 
ATOM      4  C   UNL     1     170.156 143.851 154.758  1.00  0.00     0.030 C 
ATOM      5  C   UNL     1     167.740 144.970 153.431  1.00  0.00     0.004 C 
ATOM      6  C   UNL     1     172.792 145.259 154.500  1.00  0.00     0.013 C 
ATOM      7  C   UNL     1     171.377 143.538 155.647  1.00  0.00    -0.063 C 
ATOM      8  C   UNL     1     168.723 143.464 155.279  1.00  0.00    -0.003 C 
ATOM      9  C   UNL     1     167.676 143.591 154.134  1.00  0.00    -0.011 C 
ATOM     10  C   UNL     1     172.782 143.783 155.024  1.00  0.00    -0.006 C 
ATOM     11  C   UNL     1     171.228 143.108 156.929  1.00  0.00    -0.027 C 
ATOM     12  C   UNL     1     168.214 144.250 156.516  1.00  0.00     0.008 C 
ATOM     13  C   UNL     1     167.759 142.437 153.118  1.00  0.00     0.008 C 
ATOM     14  C   UNL     1     172.957 142.841 153.782  1.00  0.00     0.017 C 
ATOM     15  C   UNL     1     173.960 143.492 156.099  1.00  0.00    -0.020 C 
ATOM     16  C   UNL     1     172.293 143.215 157.990  1.00  0.00     0.032 C 
ATOM     17  C   UNL     1     173.489 144.053 157.491  1.00  0.00     0.006 C 
ATOM     18  C   UNL     1     175.340 144.127 155.717  1.00  0.00     0.008 C 
ATOM     19  C   UNL     1     174.192 141.936 156.177  1.00  0.00     0.012 C 
ATOM     20  C   UNL     1     174.614 144.404 158.556  1.00  0.00    -0.025 C 
ATOM     21  C   UNL     1     175.608 145.491 156.365  1.00  0.00     0.005 C 
ATOM     22  C   UNL     1     175.664 145.428 157.923  1.00  0.00     0.003 C 
ATOM     23  C   UNL     1     173.913 144.990 159.828  1.00  0.00     0.010 C 
ATOM     24  C   UNL     1     175.384 143.137 159.026  1.00  0.00     0.012 C 
ATOM     25  C   UNL     1     175.695 146.865 158.575  1.00  0.00    -0.006 C 
ATOM     26  C   UNL     1     174.835 145.738 160.792  1.00  0.00     0.033 C 
ATOM     27  C   UNL     1     175.812 146.735 160.133  1.00  0.00     0.120 C 
ATOM     28  C   UNL     1     174.454 147.727 158.187  1.00  0.00     0.014 C 
ATOM     29  C   UNL     1     176.942 147.654 158.074  1.00  0.00     0.014 C 
ENDROOT
BRANCH   1  30
ATOM     30  C   UNL     1     169.931 146.381 155.224  1.00  0.00     0.048 C 
ATOM     31  O   UNL     1     170.734 146.563 156.182  1.00  0.00    -0.550 OA
ATOM     32  O   UNL     1     168.856 147.248 155.082  1.00  0.00    -0.550 OA
ENDBRANCH   1  30
BRANCH  27  33
ATOM     33  O   UNL     1     177.125 146.354 160.496  1.00  0.00    -0.393 OA
ATOM     34  H   UNL     1     177.072 145.875 161.367  1.00  0.00     0.210 HD
ENDBRANCH  27  33
TORSDOF 2
ENDMDL
MODEL 3
REMARK VINA RESULT:    -7.969      2.180      4.453
REMARK INTER + INTRA:          -8.006
REMARK INTER:                  -8.544
REMARK INTRA:                   0.538
REMARK UNBOUND:                 0.662
REMARK SMILES C[C@H]1[C@H](C)CC[C@]2(C(=O)[O-])CC[C@]3(C)C(=CC[C@H]4[C@]5(C)CC[C@@H](O)C(C)(C)[C@@H]5CC[C@@]43C)[C@@H]12
REMARK SMILES IDX 7 1 6 2 11 3 33 4 5 5 12 6 15 7 2 8 3 9 13 10 16 11 1 12
REMARK SMILES IDX 4 13 14 14 31 15 17 16 18 17 30 18 32 19 19 20 29 21 28 22
REMARK SMILES IDX 21 23 20 24 25 25 22 26 23 27 26 28 27 29 8 30 9 31 10 32
REMARK SMILES IDX 24 33
REMARK H PARENT 24 34
REMARK Flexibility Score: inf
ROOT
ATOM      1  C   UNL     1     171.029 143.482 152.896  1.00  0.00     0.017 C 
ATOM      2  C   UNL     1     170.544 142.983 151.500  1.00  0.00     0.014 C 
ATOM      3  C   UNL     1     172.454 142.900 153.136  1.00  0.00     0.014 C 
ATOM      4  C   UNL     1     170.016 142.944 153.966  1.00  0.00     0.030 C 
ATOM      5  C   UNL     1     169.087 143.361 151.171  1.00  0.00     0.004 C 
ATOM      6  C   UNL     1     172.947 143.024 154.596  1.00  0.00     0.013 C 
ATOM      7  C   UNL     1     170.574 143.054 155.399  1.00  0.00    -0.063 C 
ATOM      8  C   UNL     1     168.542 143.418 153.690  1.00  0.00    -0.003 C 
ATOM      9  C   UNL     1     168.079 142.961 152.277  1.00  0.00    -0.011 C 
ATOM     10  C   UNL     1     171.971 142.420 155.661  1.00  0.00    -0.006 C 
ATOM     11  C   UNL     1     169.892 143.712 156.376  1.00  0.00    -0.027 C 
ATOM     12  C   UNL     1     168.280 144.941 153.837  1.00  0.00     0.008 C 
ATOM     13  C   UNL     1     167.742 141.460 152.216  1.00  0.00     0.008 C 
ATOM     14  C   UNL     1     171.884 140.876 155.399  1.00  0.00     0.017 C 
ATOM     15  C   UNL     1     172.461 142.687 157.183  1.00  0.00    -0.020 C 
ATOM     16  C   UNL     1     170.524 144.262 157.630  1.00  0.00     0.032 C 
ATOM     17  C   UNL     1     172.062 144.160 157.565  1.00  0.00     0.006 C 
ATOM     18  C   UNL     1     174.000 142.488 157.399  1.00  0.00     0.008 C 
ATOM     19  C   UNL     1     171.741 141.654 158.129  1.00  0.00     0.012 C 
ATOM     20  C   UNL     1     172.878 144.859 158.735  1.00  0.00    -0.025 C 
ATOM     21  C   UNL     1     174.822 143.779 157.312  1.00  0.00     0.005 C 
ATOM     22  C   UNL     1     174.441 144.823 158.408  1.00  0.00     0.003 C 
ATOM     23  C   UNL     1     172.343 146.321 158.894  1.00  0.00     0.010 C 
ATOM     24  C   UNL     1     172.646 144.157 160.103  1.00  0.00     0.012 C 
ATOM     25  C   UNL     1     175.118 146.226 158.152  1.00  0.00    -0.006 C 
ATOM     26  C   UNL     1     173.251 147.263 159.688  1.00  0.00     0.033 C 
ATOM     27  C   UNL     1     174.748 147.209 159.315  1.00  0.00     0.120 C 
ATOM     28  C   UNL     1     174.730 146.837 156.771  1.00  0.00     0.014 C 
ATOM     29  C   UNL     1     176.669 146.078 158.139  1.00  0.00     0.014 C 
ENDROOT
BRANCH   1  30
ATOM     30  C   UNL     1     171.159 145.002 152.907  1.00  0.00     0.048 C 
ATOM     31  O   UNL     1     171.764 145.587 153.849  1.00  0.00    -0.550 OA
ATOM     32  O   UNL     1     170.715 145.760 151.831  1.00  0.00    -0.550 OA
ENDBRANCH   1  30
BRANCH  27  33
ATOM     33  O   UNL     1     175.470 146.880 160.485  1.00  0.00    -0.393 OA
ATOM     34  H   UNL     1     175.887 147.716 160.831  1.00  0.00     0.210 HD
ENDBRANCH  27  33
TORSDOF 2
ENDMDL
MODEL 4
REMARK VINA RESULT:    -7.906      1.659      7.469
REMARK INTER + INTRA:          -7.938
REMARK INTER:                  -8.323
REMARK INTRA:                   0.385
REMARK UNBOUND:                 0.662
REMARK SMILES C[C@H]1[C@H](C)CC[C@]2(C(=O)[O-])CC[C@]3(C)C(=CC[C@H]4[C@]5(C)CC[C@@H](O)C(C)(C)[C@@H]5CC[C@@]43C)[C@@H]12
REMARK SMILES IDX 7 1 6 2 11 3 33 4 5 5 12 6 15 7 2 8 3 9 13 10 16 11 1 12
REMARK SMILES IDX 4 13 14 14 31 15 17 16 18 17 30 18 32 19 19 20 29 21 28 22
REMARK SMILES IDX 21 23 20 24 25 25 22 26 23 27 26 28 27 29 8 30 9 31 10 32
REMARK SMILES IDX 24 33
REMARK H PARENT 24 34
REMARK Flexibility Score: inf
ROOT
ATOM      1  C   UNL     1     173.933 143.317 157.583  1.00  0.00     0.017 C 
ATOM      2  C   UNL     1     175.132 143.394 158.578  1.00  0.00     0.014 C 
ATOM      3  C   UNL     1     174.329 144.114 156.304  1.00  0.00     0.014 C 
ATOM      4  C   UNL     1     172.694 143.969 158.289  1.00  0.00     0.030 C 
ATOM      5  C   UNL     1     174.845 142.767 159.955  1.00  0.00     0.004 C 
ATOM      6  C   UNL     1     173.145 144.414 155.358  1.00  0.00     0.013 C 
ATOM      7  C   UNL     1     171.559 144.284 157.293  1.00  0.00    -0.063 C 
ATOM      8  C   UNL     1     172.333 143.261 159.646  1.00  0.00    -0.003 C 
ATOM      9  C   UNL     1     173.548 143.296 160.618  1.00  0.00    -0.011 C 
ATOM     10  C   UNL     1     171.935 145.133 156.044  1.00  0.00    -0.006 C 
ATOM     11  C   UNL     1     170.299 143.806 157.480  1.00  0.00    -0.027 C 
ATOM     12  C   UNL     1     171.820 141.800 159.534  1.00  0.00     0.008 C 
ATOM     13  C   UNL     1     173.765 144.682 161.252  1.00  0.00     0.008 C 
ATOM     14  C   UNL     1     172.433 146.543 156.520  1.00  0.00     0.017 C 
ATOM     15  C   UNL     1     170.666 145.311 155.051  1.00  0.00    -0.020 C 
ATOM     16  C   UNL     1     169.273 143.664 156.385  1.00  0.00     0.032 C 
ATOM     17  C   UNL     1     169.899 143.939 155.001  1.00  0.00     0.006 C 
ATOM     18  C   UNL     1     171.053 145.749 153.597  1.00  0.00     0.008 C 
ATOM     19  C   UNL     1     169.737 146.446 155.625  1.00  0.00     0.012 C 
ATOM     20  C   UNL     1     168.987 143.656 153.732  1.00  0.00    -0.025 C 
ATOM     21  C   UNL     1     171.183 144.589 152.603  1.00  0.00     0.005 C 
ATOM     22  C   UNL     1     169.849 143.806 152.396  1.00  0.00     0.003 C 
ATOM     23  C   UNL     1     168.377 142.222 153.881  1.00  0.00     0.010 C 
ATOM     24  C   UNL     1     167.782 144.636 153.653  1.00  0.00     0.012 C 
ATOM     25  C   UNL     1     170.061 142.479 151.567  1.00  0.00    -0.006 C 
ATOM     26  C   UNL     1     167.797 141.625 152.598  1.00  0.00     0.033 C 
ATOM     27  C   UNL     1     168.681 141.773 151.341  1.00  0.00     0.120 C 
ATOM     28  C   UNL     1     171.074 141.505 152.243  1.00  0.00     0.014 C 
ATOM     29  C   UNL     1     170.654 142.813 150.165  1.00  0.00     0.014 C 
ENDROOT
BRANCH   1  30
ATOM     30  C   UNL     1     173.684 141.874 157.152  1.00  0.00     0.048 C 
ATOM     31  O   UNL     1     172.695 141.585 156.423  1.00  0.00    -0.550 OA
ATOM     32  O   UNL     1     174.600 140.875 157.458  1.00  0.00    -0.550 OA
ENDBRANCH   1  30
BRANCH  27  33
ATOM     33  O   UNL     1     167.928 142.467 150.366  1.00  0.00    -0.393 OA
ATOM     34  H   UNL     1     167.075 141.971 150.231  1.00  0.00     0.210 HD
ENDBRANCH  27  33
TORSDOF 2
ENDMDL
MODEL 5
REMARK VINA RESULT:    -7.892      2.518      8.029
REMARK INTER + INTRA:          -7.923
REMARK INTER:                  -8.302
REMARK INTRA:                   0.379
REMARK UNBOUND:                 0.662
REMARK SMILES C[C@H]1[C@H](C)CC[C@]2(C(=O)[O-])CC[C@]3(C)C(=CC[C@H]4[C@]5(C)CC[C@@H](O)C(C)(C)[C@@H]5CC[C@@]43C)[C@@H]12
REMARK SMILES IDX 7 1 6 2 11 3 33 4 5 5 12 6 15 7 2 8 3 9 13 10 16 11 1 12
REMARK SMILES IDX 4 13 14 14 31 15 17 16 18 17 30 18 32 19 19 20 29 21 28 22
REMARK SMILES IDX 21 23 20 24 25 25 22 26 23 27 26 28 27 29 8 30 9 31 10 32
REMARK SMILES IDX 24 33
REMARK H PARENT 24 34
REMARK Flexibility Score: inf
ROOT
ATOM      1  C   UNL     1     174.136 146.130 158.970  1.00  0.00     0.017 C 
ATOM      2  C   UNL     1     174.952 146.806 160.115  1.00  0.00     0.014 C 
ATOM      3  C   UNL     1     172.637 146.135 159.392  1.00  0.00     0.014 C 
ATOM      4  C   UNL     1     174.670 144.663 158.815  1.00  0.00     0.030 C 
ATOM      5  C   UNL     1     176.478 146.756 159.912  1.00  0.00     0.004 C 
ATOM      6  C   UNL     1     171.737 145.220 158.532  1.00  0.00     0.013 C 
ATOM      7  C   UNL     1     173.715 143.785 157.982  1.00  0.00    -0.063 C 
ATOM      8  C   UNL     1     176.210 144.615 158.500  1.00  0.00    -0.003 C 
ATOM      9  C   UNL     1     177.017 145.333 159.620  1.00  0.00    -0.011 C 
ATOM     10  C   UNL     1     172.227 143.736 158.436  1.00  0.00    -0.006 C 
ATOM     11  C   UNL     1     174.149 143.117 156.877  1.00  0.00    -0.027 C 
ATOM     12  C   UNL     1     176.641 145.188 157.123  1.00  0.00     0.008 C 
ATOM     13  C   UNL     1     177.124 144.497 160.908  1.00  0.00     0.008 C 
ATOM     14  C   UNL     1     172.157 143.122 159.878  1.00  0.00     0.017 C 
ATOM     15  C   UNL     1     171.332 142.844 157.420  1.00  0.00    -0.020 C 
ATOM     16  C   UNL     1     173.247 142.630 155.772  1.00  0.00     0.032 C 
ATOM     17  C   UNL     1     171.810 143.160 155.955  1.00  0.00     0.006 C 
ATOM     18  C   UNL     1     169.791 143.103 157.537  1.00  0.00     0.008 C 
ATOM     19  C   UNL     1     171.555 141.323 157.761  1.00  0.00     0.012 C 
ATOM     20  C   UNL     1     170.785 142.878 154.775  1.00  0.00    -0.025 C 
ATOM     21  C   UNL     1     169.243 144.116 156.524  1.00  0.00     0.005 C 
ATOM     22  C   UNL     1     169.416 143.656 155.043  1.00  0.00     0.003 C 
ATOM     23  C   UNL     1     171.458 143.316 153.431  1.00  0.00     0.010 C 
ATOM     24  C   UNL     1     170.469 141.362 154.630  1.00  0.00     0.012 C 
ATOM     25  C   UNL     1     169.073 144.808 154.020  1.00  0.00    -0.006 C 
ATOM     26  C   UNL     1     170.502 143.487 152.250  1.00  0.00     0.033 C 
ATOM     27  C   UNL     1     169.206 144.269 152.555  1.00  0.00     0.120 C 
ATOM     28  C   UNL     1     169.962 146.074 154.222  1.00  0.00     0.014 C 
ATOM     29  C   UNL     1     167.601 145.279 154.216  1.00  0.00     0.014 C 
ENDROOT
BRANCH   1  30
ATOM     30  C   UNL     1     174.241 146.944 157.683  1.00  0.00     0.048 C 
ATOM     31  O   UNL     1     173.706 146.529 156.617  1.00  0.00    -0.550 OA
ATOM     32  O   UNL     1     174.826 148.204 157.687  1.00  0.00    -0.550 OA
ENDBRANCH   1  30
BRANCH  27  33
ATOM     33  O   UNL     1     168.113 143.428 152.240  1.00  0.00    -0.393 OA
ATOM     34  H   UNL     1     168.386 142.847 151.479  1.00  0.00     0.210 HD
ENDBRANCH  27  33
TORSDOF 2
ENDMDL
MODEL 6
REMARK VINA RESULT:    -7.802      2.371      7.957
REMARK INTER + INTRA:          -7.825
REMARK INTER:                  -8.205
REMARK INTRA:                   0.380
REMARK UNBOUND:                 0.662
REMARK SMILES C[C@H]1[C@H](C)CC[C@]2(C(=O)[O-])CC[C@]3(C)C(=CC[C@H]4[C@]5(C)CC[C@@H](O)C(C)(C)[C@@H]5CC[C@@]43C)[C@@H]12
REMARK SMILES IDX 7 1 6 2 11 3 33 4 5 5 12 6 15 7 2 8 3 9 13 10 16 11 1 12
REMARK SMILES IDX 4 13 14 14 31 15 17 16 18 17 30 18 32 19 19 20 29 21 28 22
REMARK SMILES IDX 21 23 20 24 25 25 22 26 23 27 26 28 27 29 8 30 9 31 10 32
REMARK SMILES IDX 24 33
REMARK H PARENT 24 34
REMARK Flexibility Score: inf
ROOT
ATOM      1  C   UNL     1     173.618 145.546 159.172  1.00  0.00     0.017 C 
ATOM      2  C   UNL     1     174.308 145.830 160.542  1.00  0.00     0.014 C 
ATOM      3  C   UNL     1     172.230 144.902 159.467  1.00  0.00     0.014 C 
ATOM      4  C   UNL     1     174.538 144.555 158.378  1.00  0.00     0.030 C 
ATOM      5  C   UNL     1     175.755 146.344 160.420  1.00  0.00     0.004 C 
ATOM      6  C   UNL     1     171.557 144.262 158.232  1.00  0.00     0.013 C 
ATOM      7  C   UNL     1     173.805 143.916 157.182  1.00  0.00    -0.063 C 
ATOM      8  C   UNL     1     175.988 145.125 158.160  1.00  0.00    -0.003 C 
ATOM      9  C   UNL     1     176.654 145.453 159.527  1.00  0.00    -0.011 C 
ATOM     10  C   UNL     1     172.447 143.216 157.481  1.00  0.00    -0.006 C 
ATOM     11  C   UNL     1     174.305 143.998 155.919  1.00  0.00    -0.027 C 
ATOM     12  C   UNL     1     176.097 146.367 157.235  1.00  0.00     0.008 C 
ATOM     13  C   UNL     1     177.125 144.195 160.279  1.00  0.00     0.008 C 
ATOM     14  C   UNL     1     172.699 142.019 158.463  1.00  0.00     0.017 C 
ATOM     15  C   UNL     1     171.757 142.668 156.120  1.00  0.00    -0.020 C 
ATOM     16  C   UNL     1     173.482 143.827 154.667  1.00  0.00     0.032 C 
ATOM     17  C   UNL     1     171.977 143.750 155.000  1.00  0.00     0.006 C 
ATOM     18  C   UNL     1     170.226 142.364 156.261  1.00  0.00     0.008 C 
ATOM     19  C   UNL     1     172.445 141.309 155.722  1.00  0.00     0.012 C 
ATOM     20  C   UNL     1     170.970 143.748 153.772  1.00  0.00    -0.025 C 
ATOM     21  C   UNL     1     169.311 143.510 155.812  1.00  0.00     0.005 C 
ATOM     22  C   UNL     1     169.466 143.860 154.299  1.00  0.00     0.003 C 
ATOM     23  C   UNL     1     171.353 144.936 152.826  1.00  0.00     0.010 C 
ATOM     24  C   UNL     1     171.097 142.453 152.919  1.00  0.00     0.012 C 
ATOM     25  C   UNL     1     168.705 145.189 153.916  1.00  0.00    -0.006 C 
ATOM     26  C   UNL     1     170.278 145.332 151.812  1.00  0.00     0.033 C 
ATOM     27  C   UNL     1     168.847 145.453 152.378  1.00  0.00     0.120 C 
ATOM     28  C   UNL     1     169.201 146.421 154.734  1.00  0.00     0.014 C 
ATOM     29  C   UNL     1     167.186 145.046 154.230  1.00  0.00     0.014 C 
ENDROOT
BRANCH   1  30
ATOM     30  C   UNL     1     173.355 146.849 158.422  1.00  0.00     0.048 C 
ATOM     31  O   UNL     1     172.892 146.830 157.248  1.00  0.00    -0.550 OA
ATOM     32  O   UNL     1     173.514 148.076 159.055  1.00  0.00    -0.550 OA
ENDBRANCH   1  30
BRANCH  27  33
ATOM     33  O   UNL     1     168.021 144.566 151.649  1.00  0.00    -0.393 OA
ATOM     34  H   UNL     1     167.644 145.067 150.876  1.00  0.00     0.210 HD
ENDBRANCH  27  33
TORSDOF 2
ENDMDL
MODEL 7
REMARK VINA RESULT:    -7.758      1.732      7.302
REMARK INTER + INTRA:          -7.776
REMARK INTER:                  -8.161
REMARK INTRA:                   0.384
REMARK UNBOUND:                 0.662
REMARK SMILES C[C@H]1[C@H](C)CC[C@]2(C(=O)[O-])CC[C@]3(C)C(=CC[C@H]4[C@]5(C)CC[C@@H](O)C(C)(C)[C@@H]5CC[C@@]43C)[C@@H]12
REMARK SMILES IDX 7 1 6 2 11 3 33 4 5 5 12 6 15 7 2 8 3 9 13 10 16 11 1 12
REMARK SMILES IDX 4 13 14 14 31 15 17 16 18 17 30 18 32 19 19 20 29 21 28 22
REMARK SMILES IDX 21 23 20 24 25 25 22 26 23 27 26 28 27 29 8 30 9 31 10 32
REMARK SMILES IDX 24 33
REMARK H PARENT 24 34
REMARK Flexibility Score: inf
ROOT
ATOM      1  C   UNL     1     173.292 144.996 156.106  1.00  0.00     0.017 C 
ATOM      2  C   UNL     1     174.259 145.644 157.144  1.00  0.00     0.014 C 
ATOM      3  C   UNL     1     172.693 146.144 155.239  1.00  0.00     0.014 C 
ATOM      4  C   UNL     1     172.167 144.255 156.909  1.00  0.00     0.030 C 
ATOM      5  C   UNL     1     174.831 144.650 158.173  1.00  0.00     0.004 C 
ATOM      6  C   UNL     1     171.478 145.719 154.384  1.00  0.00     0.013 C 
ATOM      7  C   UNL     1     170.963 143.890 156.017  1.00  0.00    -0.063 C 
ATOM      8  C   UNL     1     172.744 143.163 157.883  1.00  0.00    -0.003 C 
ATOM      9  C   UNL     1     173.746 143.804 158.886  1.00  0.00    -0.011 C 
ATOM     10  C   UNL     1     170.321 145.046 155.195  1.00  0.00    -0.006 C 
ATOM     11  C   UNL     1     170.512 142.609 155.924  1.00  0.00    -0.027 C 
ATOM     12  C   UNL     1     173.421 141.940 157.208  1.00  0.00     0.008 C 
ATOM     13  C   UNL     1     173.046 144.609 159.997  1.00  0.00     0.008 C 
ATOM     14  C   UNL     1     169.754 146.120 156.188  1.00  0.00     0.017 C 
ATOM     15  C   UNL     1     169.126 144.497 154.247  1.00  0.00    -0.020 C 
ATOM     16  C   UNL     1     169.683 142.082 154.781  1.00  0.00     0.032 C 
ATOM     17  C   UNL     1     169.585 143.119 153.643  1.00  0.00     0.006 C 
ATOM     18  C   UNL     1     168.737 145.475 153.085  1.00  0.00     0.008 C 
ATOM     19  C   UNL     1     167.832 144.315 155.126  1.00  0.00     0.012 C 
ATOM     20  C   UNL     1     168.892 142.643 152.296  1.00  0.00    -0.025 C 
ATOM     21  C   UNL     1     169.423 145.171 151.748  1.00  0.00     0.005 C 
ATOM     22  C   UNL     1     169.051 143.769 151.173  1.00  0.00     0.003 C 
ATOM     23  C   UNL     1     169.546 141.287 151.865  1.00  0.00     0.010 C 
ATOM     24  C   UNL     1     167.377 142.355 152.492  1.00  0.00     0.012 C 
ATOM     25  C   UNL     1     169.948 143.378 149.934  1.00  0.00    -0.006 C 
ATOM     26  C   UNL     1     169.294 140.875 150.414  1.00  0.00     0.033 C 
ATOM     27  C   UNL     1     169.486 141.992 149.366  1.00  0.00     0.120 C 
ATOM     28  C   UNL     1     171.469 143.351 150.280  1.00  0.00     0.014 C 
ATOM     29  C   UNL     1     169.782 144.431 148.798  1.00  0.00     0.014 C 
ENDROOT
BRANCH   1  30
ATOM     30  C   UNL     1     174.058 144.075 155.160  1.00  0.00     0.048 C 
ATOM     31  O   UNL     1     173.449 143.435 154.257  1.00  0.00    -0.550 OA
ATOM     32  O   UNL     1     175.445 144.010 155.202  1.00  0.00    -0.550 OA
ENDBRANCH   1  30
BRANCH  27  33
ATOM     33  O   UNL     1     168.269 142.133 148.660  1.00  0.00    -0.393 OA
ATOM     34  H   UNL     1     167.525 141.949 149.296  1.00  0.00     0.210 HD
ENDBRANCH  27  33
TORSDOF 2
ENDMDL
MODEL 8
REMARK VINA RESULT:    -7.694      2.094      4.432
REMARK INTER + INTRA:          -7.707
REMARK INTER:                  -8.094
REMARK INTRA:                   0.387
REMARK UNBOUND:                 0.662
REMARK SMILES C[C@H]1[C@H](C)CC[C@]2(C(=O)[O-])CC[C@]3(C)C(=CC[C@H]4[C@]5(C)CC[C@@H](O)C(C)(C)[C@@H]5CC[C@@]43C)[C@@H]12
REMARK SMILES IDX 7 1 6 2 11 3 33 4 5 5 12 6 15 7 2 8 3 9 13 10 16 11 1 12
REMARK SMILES IDX 4 13 14 14 31 15 17 16 18 17 30 18 32 19 19 20 29 21 28 22
REMARK SMILES IDX 21 23 20 24 25 25 22 26 23 27 26 28 27 29 8 30 9 31 10 32
REMARK SMILES IDX 24 33
REMARK H PARENT 24 34
REMARK Flexibility Score: inf
ROOT
ATOM      1  C   UNL     1     170.397 144.854 153.280  1.00  0.00     0.017 C 
ATOM      2  C   UNL     1     169.893 145.398 151.908  1.00  0.00     0.014 C 
ATOM      3  C   UNL     1     171.859 145.357 153.478  1.00  0.00     0.014 C 
ATOM      4  C   UNL     1     170.348 143.288 153.212  1.00  0.00     0.030 C 
ATOM      5  C   UNL     1     168.504 144.873 151.498  1.00  0.00     0.004 C 
ATOM      6  C   UNL     1     172.619 144.648 154.621  1.00  0.00     0.013 C 
ATOM      7  C   UNL     1     171.155 142.633 154.351  1.00  0.00    -0.063 C 
ATOM      8  C   UNL     1     168.905 142.745 152.899  1.00  0.00    -0.003 C 
ATOM      9  C   UNL     1     168.385 143.329 151.554  1.00  0.00    -0.011 C 
ATOM     10  C   UNL     1     172.635 143.086 154.515  1.00  0.00    -0.006 C 
ATOM     11  C   UNL     1     170.584 141.733 155.197  1.00  0.00    -0.027 C 
ATOM     12  C   UNL     1     167.836 142.985 153.999  1.00  0.00     0.008 C 
ATOM     13  C   UNL     1     169.037 142.670 150.325  1.00  0.00     0.008 C 
ATOM     14  C   UNL     1     173.427 142.709 153.215  1.00  0.00     0.017 C 
ATOM     15  C   UNL     1     173.326 142.377 155.799  1.00  0.00    -0.020 C 
ATOM     16  C   UNL     1     171.117 141.398 156.567  1.00  0.00     0.032 C 
ATOM     17  C   UNL     1     172.267 142.348 156.961  1.00  0.00     0.006 C 
ATOM     18  C   UNL     1     174.629 143.094 156.295  1.00  0.00     0.008 C 
ATOM     19  C   UNL     1     173.749 140.915 155.396  1.00  0.00     0.012 C 
ATOM     20  C   UNL     1     172.814 142.235 158.448  1.00  0.00    -0.025 C 
ATOM     21  C   UNL     1     174.405 144.086 157.442  1.00  0.00     0.005 C 
ATOM     22  C   UNL     1     173.855 143.412 158.738  1.00  0.00     0.003 C 
ATOM     23  C   UNL     1     171.589 142.280 159.422  1.00  0.00     0.010 C 
ATOM     24  C   UNL     1     173.525 140.876 158.703  1.00  0.00     0.012 C 
ATOM     25  C   UNL     1     173.403 144.473 159.815  1.00  0.00    -0.006 C 
ATOM     26  C   UNL     1     171.930 142.574 160.883  1.00  0.00     0.033 C 
ATOM     27  C   UNL     1     172.919 143.737 161.111  1.00  0.00     0.120 C 
ATOM     28  C   UNL     1     172.296 145.434 159.282  1.00  0.00     0.014 C 
ATOM     29  C   UNL     1     174.607 145.380 160.211  1.00  0.00     0.014 C 
ENDROOT
BRANCH   1  30
ATOM     30  C   UNL     1     169.568 145.430 154.424  1.00  0.00     0.048 C 
ATOM     31  O   UNL     1     169.813 145.106 155.620  1.00  0.00    -0.550 OA
ATOM     32  O   UNL     1     168.606 146.403 154.183  1.00  0.00    -0.550 OA
ENDBRANCH   1  30
BRANCH  27  33
ATOM     33  O   UNL     1     174.026 143.225 161.827  1.00  0.00    -0.393 OA
ATOM     34  H   UNL     1     174.212 143.846 162.583  1.00  0.00     0.210 HD
ENDBRANCH  27  33
TORSDOF 2
ENDMDL
MODEL 9
REMARK VINA RESULT:    -7.585      2.065      3.460
REMARK INTER + INTRA:          -7.589
REMARK INTER:                  -8.276
REMARK INTRA:                   0.687
REMARK UNBOUND:                 0.662
REMARK SMILES C[C@H]1[C@H](C)CC[C@]2(C(=O)[O-])CC[C@]3(C)C(=CC[C@H]4[C@]5(C)CC[C@@H](O)C(C)(C)[C@@H]5CC[C@@]43C)[C@@H]12
REMARK SMILES IDX 7 1 6 2 11 3 33 4 5 5 12 6 15 7 2 8 3 9 13 10 16 11 1 12
REMARK SMILES IDX 4 13 14 14 31 15 17 16 18 17 30 18 32 19 19 20 29 21 28 22
REMARK SMILES IDX 21 23 20 24 25 25 22 26 23 27 26 28 27 29 8 30 9 31 10 32
REMARK SMILES IDX 24 33
REMARK H PARENT 24 34
REMARK Flexibility Score: inf
ROOT
ATOM      1  C   UNL     1     169.371 143.207 148.636  1.00  0.00     0.017 C 
ATOM      2  C   UNL     1     168.740 143.034 147.221  1.00  0.00     0.014 C 
ATOM      3  C   UNL     1     169.468 141.795 149.287  1.00  0.00     0.014 C 
ATOM      4  C   UNL     1     168.421 144.142 149.464  1.00  0.00     0.030 C 
ATOM      5  C   UNL     1     168.448 144.362 146.497  1.00  0.00     0.004 C 
ATOM      6  C   UNL     1     169.764 141.819 150.804  1.00  0.00     0.013 C 
ATOM      7  C   UNL     1     168.734 144.097 150.973  1.00  0.00    -0.063 C 
ATOM      8  C   UNL     1     168.207 145.541 148.778  1.00  0.00    -0.003 C 
ATOM      9  C   UNL     1     167.623 145.361 147.347  1.00  0.00    -0.011 C 
ATOM     10  C   UNL     1     168.771 142.692 151.642  1.00  0.00    -0.006 C 
ATOM     11  C   UNL     1     169.006 145.231 151.674  1.00  0.00    -0.027 C 
ATOM     12  C   UNL     1     169.457 146.457 148.700  1.00  0.00     0.008 C 
ATOM     13  C   UNL     1     166.128 144.993 147.354  1.00  0.00     0.008 C 
ATOM     14  C   UNL     1     167.351 142.036 151.523  1.00  0.00     0.017 C 
ATOM     15  C   UNL     1     169.194 142.797 153.204  1.00  0.00    -0.020 C 
ATOM     16  C   UNL     1     169.750 145.261 152.985  1.00  0.00     0.032 C 
ATOM     17  C   UNL     1     170.334 143.873 153.322  1.00  0.00     0.006 C 
ATOM     18  C   UNL     1     169.685 141.443 153.822  1.00  0.00     0.008 C 
ATOM     19  C   UNL     1     167.930 143.233 154.036  1.00  0.00     0.012 C 
ATOM     20  C   UNL     1     171.295 143.787 154.584  1.00  0.00    -0.025 C 
ATOM     21  C   UNL     1     171.207 141.262 153.816  1.00  0.00     0.005 C 
ATOM     22  C   UNL     1     171.955 142.334 154.668  1.00  0.00     0.003 C 
ATOM     23  C   UNL     1     172.371 144.916 154.455  1.00  0.00     0.010 C 
ATOM     24  C   UNL     1     170.534 144.059 155.912  1.00  0.00     0.012 C 
ATOM     25  C   UNL     1     173.518 142.281 154.453  1.00  0.00    -0.006 C 
ATOM     26  C   UNL     1     173.598 144.751 155.353  1.00  0.00     0.033 C 
ATOM     27  C   UNL     1     174.214 143.336 155.379  1.00  0.00     0.120 C 
ATOM     28  C   UNL     1     173.926 142.501 152.964  1.00  0.00     0.014 C 
ATOM     29  C   UNL     1     174.065 140.876 154.847  1.00  0.00     0.014 C 
ENDROOT
BRANCH   1  30
ATOM     30  C   UNL     1     170.794 143.748 148.527  1.00  0.00     0.048 C 
ATOM     31  O   UNL     1     171.609 143.606 149.482  1.00  0.00    -0.550 OA
ATOM     32  O   UNL     1     171.253 144.303 147.339  1.00  0.00    -0.550 OA
ENDBRANCH   1  30
BRANCH  27  33
ATOM     33  O   UNL     1     174.210 142.890 156.721  1.00  0.00    -0.393 OA
ATOM     34  H   UNL     1     174.894 142.171 156.804  1.00  0.00     0.210 HD
ENDBRANCH  27  33
TORSDOF 2
ENDMDL
