MODEL 1
REMARK VINA RESULT:    16.939      0.000      0.000
REMARK INTER + INTRA:          30.033
REMARK INTER:                  30.803
REMARK INTRA:                  -0.770
REMARK UNBOUND:                -0.770
REMARK SMILES CCCCCCCCCCCCCCCC(=O)[O-]
REMARK SMILES IDX 9 1 10 2 11 3 12 4 13 5 14 6 15 7 16 8 17 9 18 10 8 11 7 12
REMARK SMILES IDX 6 13 5 14 4 15 3 16 2 17 1 18
REMARK H PARENT
REMARK Flexibility Score: inf
ROOT
ATOM      1  C   UNL     1     -39.382  24.963 -13.684  1.00  0.00     0.000 C 
ENDROOT
BRANCH   1   2
ATOM      2  C   UNL     1     -39.714  24.174 -12.404  1.00  0.00     0.000 C 
BRANCH   2   3
ATOM      3  C   UNL     1     -41.218  23.888 -12.255  1.00  0.00     0.000 C 
BRANCH   3   4
ATOM      4  C   UNL     1     -41.992  24.898 -11.386  1.00  0.00     0.000 C 
BRANCH   4   5
ATOM      5  C   UNL     1     -43.217  24.291 -10.669  1.00  0.00     0.000 C 
BRANCH   5   6
ATOM      6  C   UNL     1     -43.635  25.112  -9.437  1.00  0.00     0.006 C 
BRANCH   6   7
ATOM      7  C   UNL     1     -45.160  25.209  -9.294  1.00  0.00     0.053 C 
BRANCH   7   8
ATOM      8  C   UNL     1     -45.559  25.659  -7.922  1.00  0.00     0.041 C 
ATOM      9  O   UNL     1     -46.654  26.254  -7.745  1.00  0.00    -0.550 OA
ATOM     10  O   UNL     1     -44.707  25.450  -6.845  1.00  0.00    -0.550 OA
ENDBRANCH   7   8
ENDBRANCH   6   7
ENDBRANCH   5   6
ENDBRANCH   4   5
ENDBRANCH   3   4
ENDBRANCH   2   3
ENDBRANCH   1   2
BRANCH   1  11
ATOM     11  C   UNL     1     -39.924  24.283 -14.952  1.00  0.00     0.000 C 
BRANCH  11  12
ATOM     12  C   UNL     1     -41.164  24.991 -15.520  1.00  0.00    -0.000 C 
BRANCH  12  13
ATOM     13  C   UNL     1     -42.403  24.078 -15.566  1.00  0.00    -0.000 C 
BRANCH  13  14
ATOM     14  C   UNL     1     -42.263  22.895 -16.547  1.00  0.00    -0.000 C 
BRANCH  14  15
ATOM     15  C   UNL     1     -41.562  23.306 -17.854  1.00  0.00    -0.000 C 
BRANCH  15  16
ATOM     16  C   UNL     1     -40.513  22.280 -18.308  1.00  0.00    -0.000 C 
BRANCH  16  17
ATOM     17  C   UNL     1     -39.147  22.923 -18.594  1.00  0.00    -0.003 C 
ATOM     18  C   UNL     1     -38.110  21.867 -18.964  1.00  0.00     0.004 C 
ENDBRANCH  16  17
ENDBRANCH  15  16
ENDBRANCH  14  15
ENDBRANCH  13  14
ENDBRANCH  12  13
ENDBRANCH  11  12
ENDBRANCH   1  11
TORSDOF 14
ENDMDL
MODEL 2
REMARK VINA RESULT:    17.630      1.036      2.042
REMARK INTER + INTRA:          31.290
REMARK INTER:                  31.989
REMARK INTRA:                  -0.699
REMARK UNBOUND:                -0.770
REMARK SMILES CCCCCCCCCCCCCCCC(=O)[O-]
REMARK SMILES IDX 9 1 10 2 11 3 12 4 13 5 14 6 15 7 16 8 17 9 18 10 8 11 7 12
REMARK SMILES IDX 6 13 5 14 4 15 3 16 2 17 1 18
REMARK H PARENT
REMARK Flexibility Score: inf
ROOT
ATOM      1  C   UNL     1     -41.335  24.556 -15.053  1.00  0.00     0.000 C 
ENDROOT
BRANCH   1   2
ATOM      2  C   UNL     1     -42.398  24.166 -14.010  1.00  0.00     0.000 C 
BRANCH   2   3
ATOM      3  C   UNL     1     -41.783  23.596 -12.720  1.00  0.00     0.000 C 
BRANCH   3   4
ATOM      4  C   UNL     1     -42.016  24.444 -11.455  1.00  0.00     0.000 C 
BRANCH   4   5
ATOM      5  C   UNL     1     -43.504  24.735 -11.166  1.00  0.00     0.000 C 
BRANCH   5   6
ATOM      6  C   UNL     1     -43.739  25.173  -9.710  1.00  0.00     0.006 C 
BRANCH   6   7
ATOM      7  C   UNL     1     -45.129  24.770  -9.200  1.00  0.00     0.053 C 
BRANCH   7   8
ATOM      8  C   UNL     1     -45.536  25.579  -8.006  1.00  0.00     0.041 C 
ATOM      9  O   UNL     1     -46.578  26.285  -8.046  1.00  0.00    -0.550 OA
ATOM     10  O   UNL     1     -44.748  25.578  -6.862  1.00  0.00    -0.550 OA
ENDBRANCH   7   8
ENDBRANCH   6   7
ENDBRANCH   5   6
ENDBRANCH   4   5
ENDBRANCH   3   4
ENDBRANCH   2   3
ENDBRANCH   1   2
BRANCH   1  11
ATOM     11  C   UNL     1     -41.845  24.411 -16.496  1.00  0.00     0.000 C 
BRANCH  11  12
ATOM     12  C   UNL     1     -41.891  22.948 -16.963  1.00  0.00    -0.000 C 
BRANCH  12  13
ATOM     13  C   UNL     1     -41.215  22.736 -18.330  1.00  0.00    -0.000 C 
BRANCH  13  14
ATOM     14  C   UNL     1     -40.761  21.282 -18.577  1.00  0.00    -0.000 C 
BRANCH  14  15
ATOM     15  C   UNL     1     -39.227  21.146 -18.560  1.00  0.00    -0.000 C 
BRANCH  15  16
ATOM     16  C   UNL     1     -38.517  22.500 -18.419  1.00  0.00    -0.000 C 
BRANCH  16  17
ATOM     17  C   UNL     1     -37.644  22.835 -19.638  1.00  0.00    -0.003 C 
ATOM     18  C   UNL     1     -38.123  24.110 -20.324  1.00  0.00     0.004 C 
ENDBRANCH  16  17
ENDBRANCH  15  16
ENDBRANCH  14  15
ENDBRANCH  13  14
ENDBRANCH  12  13
ENDBRANCH  11  12
ENDBRANCH   1  11
TORSDOF 14
ENDMDL
MODEL 3
REMARK VINA RESULT:    18.472     10.324     12.658
REMARK INTER + INTRA:          32.821
REMARK INTER:                  33.741
REMARK INTRA:                  -0.919
REMARK UNBOUND:                -0.770
REMARK SMILES CCCCCCCCCCCCCCCC(=O)[O-]
REMARK SMILES IDX 9 1 10 2 11 3 12 4 13 5 14 6 15 7 16 8 17 9 18 10 8 11 7 12
REMARK SMILES IDX 6 13 5 14 4 15 3 16 2 17 1 18
REMARK H PARENT
REMARK Flexibility Score: inf
ROOT
ATOM      1  C   UNL     1     -38.160  29.893 -21.526  1.00  0.00     0.000 C 
ENDROOT
BRANCH   1   2
ATOM      2  C   UNL     1     -39.064  29.826 -20.282  1.00  0.00     0.000 C 
BRANCH   2   3
ATOM      3  C   UNL     1     -40.480  30.365 -20.547  1.00  0.00     0.000 C 
BRANCH   3   4
ATOM      4  C   UNL     1     -41.386  29.440 -21.383  1.00  0.00     0.000 C 
BRANCH   4   5
ATOM      5  C   UNL     1     -41.418  29.793 -22.885  1.00  0.00     0.000 C 
BRANCH   5   6
ATOM      6  C   UNL     1     -42.695  30.555 -23.277  1.00  0.00     0.006 C 
BRANCH   6   7
ATOM      7  C   UNL     1     -42.904  31.814 -22.425  1.00  0.00     0.053 C 
BRANCH   7   8
ATOM      8  C   UNL     1     -44.173  31.739 -21.630  1.00  0.00     0.041 C 
ATOM      9  O   UNL     1     -45.231  32.255 -22.077  1.00  0.00    -0.550 OA
ATOM     10  O   UNL     1     -44.178  31.128 -20.383  1.00  0.00    -0.550 OA
ENDBRANCH   7   8
ENDBRANCH   6   7
ENDBRANCH   5   6
ENDBRANCH   4   5
ENDBRANCH   3   4
ENDBRANCH   2   3
ENDBRANCH   1   2
BRANCH   1  11
ATOM     11  C   UNL     1     -37.961  28.518 -22.184  1.00  0.00     0.000 C 
BRANCH  11  12
ATOM     12  C   UNL     1     -37.111  28.592 -23.463  1.00  0.00    -0.000 C 
BRANCH  12  13
ATOM     13  C   UNL     1     -37.034  30.013 -24.048  1.00  0.00    -0.000 C 
BRANCH  13  14
ATOM     14  C   UNL     1     -35.770  30.266 -24.896  1.00  0.00    -0.000 C 
BRANCH  14  15
ATOM     15  C   UNL     1     -35.978  31.393 -25.923  1.00  0.00    -0.000 C 
BRANCH  15  16
ATOM     16  C   UNL     1     -37.438  31.869 -25.987  1.00  0.00    -0.000 C 
BRANCH  16  17
ATOM     17  C   UNL     1     -37.576  33.376 -25.724  1.00  0.00    -0.003 C 
ATOM     18  C   UNL     1     -36.308  34.123 -26.125  1.00  0.00     0.004 C 
ENDBRANCH  16  17
ENDBRANCH  15  16
ENDBRANCH  14  15
ENDBRANCH  13  14
ENDBRANCH  12  13
ENDBRANCH  11  12
ENDBRANCH   1  11
TORSDOF 14
ENDMDL
MODEL 4
REMARK VINA RESULT:    18.894      4.965      9.579
REMARK INTER + INTRA:          33.588
REMARK INTER:                  33.898
REMARK INTRA:                  -0.310
REMARK UNBOUND:                -0.770
REMARK SMILES CCCCCCCCCCCCCCCC(=O)[O-]
REMARK SMILES IDX 9 1 10 2 11 3 12 4 13 5 14 6 15 7 16 8 17 9 18 10 8 11 7 12
REMARK SMILES IDX 6 13 5 14 4 15 3 16 2 17 1 18
REMARK H PARENT
REMARK Flexibility Score: inf
ROOT
ATOM      1  C   UNL     1     -42.702  24.038 -13.363  1.00  0.00     0.000 C 
ENDROOT
BRANCH   1   2
ATOM      2  C   UNL     1     -42.621  23.545 -14.818  1.00  0.00     0.000 C 
BRANCH   2   3
ATOM      3  C   UNL     1     -41.500  24.231 -15.617  1.00  0.00     0.000 C 
BRANCH   3   4
ATOM      4  C   UNL     1     -41.625  24.119 -17.149  1.00  0.00     0.000 C 
BRANCH   4   5
ATOM      5  C   UNL     1     -41.940  22.691 -17.645  1.00  0.00     0.000 C 
BRANCH   5   6
ATOM      6  C   UNL     1     -40.730  22.034 -18.331  1.00  0.00     0.006 C 
BRANCH   6   7
ATOM      7  C   UNL     1     -39.561  23.012 -18.508  1.00  0.00     0.053 C 
BRANCH   7   8
ATOM      8  C   UNL     1     -38.336  22.322 -19.026  1.00  0.00     0.041 C 
ATOM      9  O   UNL     1     -38.059  21.155 -18.645  1.00  0.00    -0.550 OA
ATOM     10  O   UNL     1     -37.484  22.981 -19.903  1.00  0.00    -0.550 OA
ENDBRANCH   7   8
ENDBRANCH   6   7
ENDBRANCH   5   6
ENDBRANCH   4   5
ENDBRANCH   3   4
ENDBRANCH   2   3
ENDBRANCH   1   2
BRANCH   1  11
ATOM     11  C   UNL     1     -41.354  23.937 -12.631  1.00  0.00     0.000 C 
BRANCH  11  12
ATOM     12  C   UNL     1     -41.288  24.834 -11.384  1.00  0.00    -0.000 C 
BRANCH  12  13
ATOM     13  C   UNL     1     -42.297  24.421 -10.298  1.00  0.00    -0.000 C 
BRANCH  13  14
ATOM     14  C   UNL     1     -43.746  24.857 -10.601  1.00  0.00    -0.000 C 
BRANCH  14  15
ATOM     15  C   UNL     1     -44.696  24.565  -9.425  1.00  0.00    -0.000 C 
BRANCH  15  16
ATOM     16  C   UNL     1     -45.664  25.725  -9.148  1.00  0.00    -0.000 C 
BRANCH  16  17
ATOM     17  C   UNL     1     -45.810  26.022  -7.648  1.00  0.00    -0.003 C 
ATOM     18  C   UNL     1     -44.601  25.516  -6.867  1.00  0.00     0.004 C 
ENDBRANCH  16  17
ENDBRANCH  15  16
ENDBRANCH  14  15
ENDBRANCH  13  14
ENDBRANCH  12  13
ENDBRANCH  11  12
ENDBRANCH   1  11
TORSDOF 14
ENDMDL
MODEL 5
REMARK VINA RESULT:    19.188      7.273     10.221
REMARK INTER + INTRA:          34.123
REMARK INTER:                  34.669
REMARK INTRA:                  -0.546
REMARK UNBOUND:                -0.770
REMARK SMILES CCCCCCCCCCCCCCCC(=O)[O-]
REMARK SMILES IDX 9 1 10 2 11 3 12 4 13 5 14 6 15 7 16 8 17 9 18 10 8 11 7 12
REMARK SMILES IDX 6 13 5 14 4 15 3 16 2 17 1 18
REMARK H PARENT
REMARK Flexibility Score: inf
ROOT
ATOM      1  C   UNL     1     -37.391  27.209 -21.367  1.00  0.00     0.000 C 
ENDROOT
BRANCH   1   2
ATOM      2  C   UNL     1     -38.426  28.119 -22.051  1.00  0.00     0.000 C 
BRANCH   2   3
ATOM      3  C   UNL     1     -38.546  29.495 -21.374  1.00  0.00     0.000 C 
BRANCH   3   4
ATOM      4  C   UNL     1     -39.927  29.805 -20.765  1.00  0.00     0.000 C 
BRANCH   4   5
ATOM      5  C   UNL     1     -41.112  29.382 -21.660  1.00  0.00     0.000 C 
BRANCH   5   6
ATOM      6  C   UNL     1     -41.701  30.568 -22.443  1.00  0.00     0.006 C 
BRANCH   6   7
ATOM      7  C   UNL     1     -43.227  30.481 -22.566  1.00  0.00     0.053 C 
BRANCH   7   8
ATOM      8  C   UNL     1     -43.909  31.532 -21.743  1.00  0.00     0.041 C 
ATOM      9  O   UNL     1     -43.694  31.603 -20.504  1.00  0.00    -0.550 OA
ATOM     10  O   UNL     1     -44.804  32.411 -22.338  1.00  0.00    -0.550 OA
ENDBRANCH   7   8
ENDBRANCH   6   7
ENDBRANCH   5   6
ENDBRANCH   4   5
ENDBRANCH   3   4
ENDBRANCH   2   3
ENDBRANCH   1   2
BRANCH   1  11
ATOM     11  C   UNL     1     -37.727  25.716 -21.518  1.00  0.00     0.000 C 
BRANCH  11  12
ATOM     12  C   UNL     1     -37.444  24.913 -20.238  1.00  0.00    -0.000 C 
BRANCH  12  13
ATOM     13  C   UNL     1     -38.075  23.509 -20.263  1.00  0.00    -0.000 C 
BRANCH  13  14
ATOM     14  C   UNL     1     -37.992  22.770 -18.911  1.00  0.00    -0.000 C 
BRANCH  14  15
ATOM     15  C   UNL     1     -38.733  21.421 -18.943  1.00  0.00    -0.000 C 
BRANCH  15  16
ATOM     16  C   UNL     1     -40.236  21.568 -18.661  1.00  0.00    -0.000 C 
BRANCH  16  17
ATOM     17  C   UNL     1     -40.575  22.889 -17.954  1.00  0.00    -0.003 C 
ATOM     18  C   UNL     1     -42.028  22.909 -17.492  1.00  0.00     0.004 C 
ENDBRANCH  16  17
ENDBRANCH  15  16
ENDBRANCH  14  15
ENDBRANCH  13  14
ENDBRANCH  12  13
ENDBRANCH  11  12
ENDBRANCH   1  11
TORSDOF 14
ENDMDL
MODEL 6
REMARK VINA RESULT:    19.538      3.701      5.986
REMARK INTER + INTRA:          34.759
REMARK INTER:                  35.291
REMARK INTRA:                  -0.531
REMARK UNBOUND:                -0.770
REMARK SMILES CCCCCCCCCCCCCCCC(=O)[O-]
REMARK SMILES IDX 9 1 10 2 11 3 12 4 13 5 14 6 15 7 16 8 17 9 18 10 8 11 7 12
REMARK SMILES IDX 6 13 5 14 4 15 3 16 2 17 1 18
REMARK H PARENT
REMARK Flexibility Score: inf
ROOT
ATOM      1  C   UNL     1     -39.524  22.890 -18.224  1.00  0.00     0.000 C 
ENDROOT
BRANCH   1   2
ATOM      2  C   UNL     1     -40.813  22.049 -18.221  1.00  0.00     0.000 C 
BRANCH   2   3
ATOM      3  C   UNL     1     -42.042  22.847 -17.751  1.00  0.00     0.000 C 
BRANCH   3   4
ATOM      4  C   UNL     1     -41.800  23.762 -16.534  1.00  0.00     0.000 C 
BRANCH   4   5
ATOM      5  C   UNL     1     -42.689  23.428 -15.317  1.00  0.00     0.000 C 
BRANCH   5   6
ATOM      6  C   UNL     1     -42.442  24.383 -14.137  1.00  0.00     0.006 C 
BRANCH   6   7
ATOM      7  C   UNL     1     -41.846  23.662 -12.922  1.00  0.00     0.053 C 
BRANCH   7   8
ATOM      8  C   UNL     1     -41.953  24.492 -11.678  1.00  0.00     0.041 C 
ATOM      9  O   UNL     1     -40.915  24.952 -11.134  1.00  0.00    -0.550 OA
ATOM     10  O   UNL     1     -43.195  24.729 -11.105  1.00  0.00    -0.550 OA
ENDBRANCH   7   8
ENDBRANCH   6   7
ENDBRANCH   5   6
ENDBRANCH   4   5
ENDBRANCH   3   4
ENDBRANCH   2   3
ENDBRANCH   1   2
BRANCH   1  11
ATOM     11  C   UNL     1     -38.391  22.228 -19.025  1.00  0.00     0.000 C 
BRANCH  11  12
ATOM     12  C   UNL     1     -37.505  23.250 -19.754  1.00  0.00    -0.000 C 
BRANCH  12  13
ATOM     13  C   UNL     1     -38.320  24.288 -20.547  1.00  0.00    -0.000 C 
BRANCH  13  14
ATOM     14  C   UNL     1     -37.502  25.527 -20.968  1.00  0.00    -0.000 C 
BRANCH  14  15
ATOM     15  C   UNL     1     -38.267  26.413 -21.968  1.00  0.00    -0.000 C 
BRANCH  15  16
ATOM     16  C   UNL     1     -37.724  27.849 -22.018  1.00  0.00    -0.000 C 
BRANCH  16  17
ATOM     17  C   UNL     1     -38.811  28.898 -21.739  1.00  0.00    -0.003 C 
ATOM     18  C   UNL     1     -38.332  29.928 -20.720  1.00  0.00     0.004 C 
ENDBRANCH  16  17
ENDBRANCH  15  16
ENDBRANCH  14  15
ENDBRANCH  13  14
ENDBRANCH  12  13
ENDBRANCH  11  12
ENDBRANCH   1  11
TORSDOF 14
ENDMDL
MODEL 7
REMARK VINA RESULT:    19.616      5.914      9.600
REMARK INTER + INTRA:          34.900
REMARK INTER:                  35.531
REMARK INTRA:                  -0.631
REMARK UNBOUND:                -0.770
REMARK SMILES CCCCCCCCCCCCCCCC(=O)[O-]
REMARK SMILES IDX 9 1 10 2 11 3 12 4 13 5 14 6 15 7 16 8 17 9 18 10 8 11 7 12
REMARK SMILES IDX 6 13 5 14 4 15 3 16 2 17 1 18
REMARK H PARENT
REMARK Flexibility Score: inf
ROOT
ATOM      1  C   UNL     1     -41.865  22.642 -17.499  1.00  0.00     0.000 C 
ENDROOT
BRANCH   1   2
ATOM      2  C   UNL     1     -40.711  22.961 -18.466  1.00  0.00     0.000 C 
BRANCH   2   3
ATOM      3  C   UNL     1     -39.623  21.874 -18.470  1.00  0.00     0.000 C 
BRANCH   3   4
ATOM      4  C   UNL     1     -38.197  22.378 -18.766  1.00  0.00     0.000 C 
BRANCH   4   5
ATOM      5  C   UNL     1     -38.039  23.016 -20.164  1.00  0.00     0.000 C 
BRANCH   5   6
ATOM      6  C   UNL     1     -37.660  24.504 -20.085  1.00  0.00     0.006 C 
BRANCH   6   7
ATOM      7  C   UNL     1     -37.994  25.258 -21.378  1.00  0.00     0.053 C 
BRANCH   7   8
ATOM      8  C   UNL     1     -37.316  26.594 -21.431  1.00  0.00     0.041 C 
ATOM      9  O   UNL     1     -36.195  26.756 -20.882  1.00  0.00    -0.550 OA
ATOM     10  O   UNL     1     -37.938  27.665 -22.060  1.00  0.00    -0.550 OA
ENDBRANCH   7   8
ENDBRANCH   6   7
ENDBRANCH   5   6
ENDBRANCH   4   5
ENDBRANCH   3   4
ENDBRANCH   2   3
ENDBRANCH   1   2
BRANCH   1  11
ATOM     11  C   UNL     1     -42.077  23.747 -16.451  1.00  0.00     0.000 C 
BRANCH  11  12
ATOM     12  C   UNL     1     -42.852  23.253 -15.219  1.00  0.00    -0.000 C 
BRANCH  12  13
ATOM     13  C   UNL     1     -42.731  24.206 -14.016  1.00  0.00    -0.000 C 
BRANCH  13  14
ATOM     14  C   UNL     1     -42.181  23.529 -12.743  1.00  0.00    -0.000 C 
BRANCH  14  15
ATOM     15  C   UNL     1     -41.675  24.557 -11.715  1.00  0.00    -0.000 C 
BRANCH  15  16
ATOM     16  C   UNL     1     -40.141  24.616 -11.648  1.00  0.00    -0.000 C 
BRANCH  16  17
ATOM     17  C   UNL     1     -39.487  24.505 -13.033  1.00  0.00    -0.003 C 
ATOM     18  C   UNL     1     -38.271  23.585 -12.995  1.00  0.00     0.004 C 
ENDBRANCH  16  17
ENDBRANCH  15  16
ENDBRANCH  14  15
ENDBRANCH  13  14
ENDBRANCH  12  13
ENDBRANCH  11  12
ENDBRANCH   1  11
TORSDOF 14
ENDMDL
MODEL 8
REMARK VINA RESULT:    19.678      7.227     10.239
REMARK INTER + INTRA:          35.014
REMARK INTER:                  35.670
REMARK INTRA:                  -0.656
REMARK UNBOUND:                -0.770
REMARK SMILES CCCCCCCCCCCCCCCC(=O)[O-]
REMARK SMILES IDX 9 1 10 2 11 3 12 4 13 5 14 6 15 7 16 8 17 9 18 10 8 11 7 12
REMARK SMILES IDX 6 13 5 14 4 15 3 16 2 17 1 18
REMARK H PARENT
REMARK Flexibility Score: inf
ROOT
ATOM      1  C   UNL     1     -38.084  26.368 -22.045  1.00  0.00     0.000 C 
ENDROOT
BRANCH   1   2
ATOM      2  C   UNL     1     -37.629  27.836 -21.967  1.00  0.00     0.000 C 
BRANCH   2   3
ATOM      3  C   UNL     1     -38.800  28.827 -22.068  1.00  0.00     0.000 C 
BRANCH   3   4
ATOM      4  C   UNL     1     -39.035  29.691 -20.813  1.00  0.00     0.000 C 
BRANCH   4   5
ATOM      5  C   UNL     1     -40.517  30.055 -20.576  1.00  0.00     0.000 C 
BRANCH   5   6
ATOM      6  C   UNL     1     -41.384  29.800 -21.820  1.00  0.00     0.006 C 
BRANCH   6   7
ATOM      7  C   UNL     1     -42.008  31.090 -22.367  1.00  0.00     0.053 C 
BRANCH   7   8
ATOM      8  C   UNL     1     -43.500  31.089 -22.219  1.00  0.00     0.041 C 
ATOM      9  O   UNL     1     -44.055  31.865 -21.398  1.00  0.00    -0.550 OA
ATOM     10  O   UNL     1     -44.273  30.209 -22.965  1.00  0.00    -0.550 OA
ENDBRANCH   7   8
ENDBRANCH   6   7
ENDBRANCH   5   6
ENDBRANCH   4   5
ENDBRANCH   3   4
ENDBRANCH   2   3
ENDBRANCH   1   2
BRANCH   1  11
ATOM     11  C   UNL     1     -37.450  25.496 -20.949  1.00  0.00     0.000 C 
BRANCH  11  12
ATOM     12  C   UNL     1     -38.238  24.201 -20.693  1.00  0.00    -0.000 C 
BRANCH  12  13
ATOM     13  C   UNL     1     -37.525  23.252 -19.713  1.00  0.00    -0.000 C 
BRANCH  13  14
ATOM     14  C   UNL     1     -38.466  22.219 -19.057  1.00  0.00    -0.000 C 
BRANCH  14  15
ATOM     15  C   UNL     1     -39.561  22.891 -18.209  1.00  0.00    -0.000 C 
BRANCH  15  16
ATOM     16  C   UNL     1     -40.911  22.164 -18.308  1.00  0.00    -0.000 C 
BRANCH  16  17
ATOM     17  C   UNL     1     -42.014  22.861 -17.497  1.00  0.00    -0.003 C 
ATOM     18  C   UNL     1     -41.429  23.932 -16.581  1.00  0.00     0.004 C 
ENDBRANCH  16  17
ENDBRANCH  15  16
ENDBRANCH  14  15
ENDBRANCH  13  14
ENDBRANCH  12  13
ENDBRANCH  11  12
ENDBRANCH   1  11
TORSDOF 14
ENDMDL
MODEL 9
REMARK VINA RESULT:    19.799      6.004      9.795
REMARK INTER + INTRA:          35.234
REMARK INTER:                  35.848
REMARK INTRA:                  -0.615
REMARK UNBOUND:                -0.770
REMARK SMILES CCCCCCCCCCCCCCCC(=O)[O-]
REMARK SMILES IDX 9 1 10 2 11 3 12 4 13 5 14 6 15 7 16 8 17 9 18 10 8 11 7 12
REMARK SMILES IDX 6 13 5 14 4 15 3 16 2 17 1 18
REMARK H PARENT
REMARK Flexibility Score: inf
ROOT
ATOM      1  C   UNL     1     -39.468  21.990 -18.283  1.00  0.00     0.000 C 
ENDROOT
BRANCH   1   2
ATOM      2  C   UNL     1     -38.141  22.590 -18.781  1.00  0.00     0.000 C 
BRANCH   2   3
ATOM      3  C   UNL     1     -38.266  23.238 -20.170  1.00  0.00     0.000 C 
BRANCH   3   4
ATOM      4  C   UNL     1     -37.685  24.661 -20.281  1.00  0.00     0.000 C 
BRANCH   4   5
ATOM      5  C   UNL     1     -38.059  25.385 -21.593  1.00  0.00     0.000 C 
BRANCH   5   6
ATOM      6  C   UNL     1     -37.623  26.861 -21.587  1.00  0.00     0.006 C 
BRANCH   6   7
ATOM      7  C   UNL     1     -38.639  27.769 -22.291  1.00  0.00     0.053 C 
BRANCH   7   8
ATOM      8  C   UNL     1     -38.873  29.036 -21.526  1.00  0.00     0.041 C 
ATOM      9  O   UNL     1     -37.935  29.559 -20.868  1.00  0.00    -0.550 OA
ATOM     10  O   UNL     1     -40.132  29.621 -21.514  1.00  0.00    -0.550 OA
ENDBRANCH   7   8
ENDBRANCH   6   7
ENDBRANCH   5   6
ENDBRANCH   4   5
ENDBRANCH   3   4
ENDBRANCH   2   3
ENDBRANCH   1   2
BRANCH   1  11
ATOM     11  C   UNL     1     -40.662  22.932 -18.510  1.00  0.00     0.000 C 
BRANCH  11  12
ATOM     12  C   UNL     1     -41.809  22.685 -17.517  1.00  0.00    -0.000 C 
BRANCH  12  13
ATOM     13  C   UNL     1     -41.895  23.765 -16.424  1.00  0.00    -0.000 C 
BRANCH  13  14
ATOM     14  C   UNL     1     -42.747  23.347 -15.207  1.00  0.00    -0.000 C 
BRANCH  14  15
ATOM     15  C   UNL     1     -42.565  24.306 -14.017  1.00  0.00    -0.000 C 
BRANCH  15  16
ATOM     16  C   UNL     1     -42.057  23.591 -12.756  1.00  0.00    -0.000 C 
BRANCH  16  17
ATOM     17  C   UNL     1     -40.995  24.408 -12.005  1.00  0.00    -0.003 C 
ATOM     18  C   UNL     1     -39.670  24.414 -12.761  1.00  0.00     0.004 C 
ENDBRANCH  16  17
ENDBRANCH  15  16
ENDBRANCH  14  15
ENDBRANCH  13  14
ENDBRANCH  12  13
ENDBRANCH  11  12
ENDBRANCH   1  11
TORSDOF 14
ENDMDL
