MODEL 1
REMARK VINA RESULT:    -7.292      0.000      0.000
REMARK INTER + INTRA:          -9.115
REMARK INTER:                  -8.785
REMARK INTRA:                  -0.331
REMARK UNBOUND:                -0.331
REMARK SMILES O=c1c(O)c(-c2ccc(O)c(O)c2)oc2cc(O)cc(O)c12
REMARK SMILES IDX 5 1 3 2 2 3 1 4 22 5 20 6 19 7 17 8 16 9 15 10 14 11 6 12
REMARK SMILES IDX 7 13 8 14 9 15 13 16 11 17 10 18 12 20 4 22 21 24 18 26
REMARK H PARENT 10 19 12 21 4 23 21 25 18 27
REMARK Flexibility Score: inf
ROOT
ATOM      1  C   UNL     1     -11.790  38.864  -7.069  1.00  0.00     0.180 A 
ATOM      2  C   UNL     1     -11.155  38.836  -8.323  1.00  0.00     0.208 A 
ATOM      3  C   UNL     1     -11.866  39.260  -9.456  1.00  0.00     0.238 A 
ATOM      4  O   UNL     1     -11.311  39.181 -10.583  1.00  0.00    -0.285 OA
ATOM      5  C   UNL     1     -13.198  39.722  -9.320  1.00  0.00     0.111 A 
ATOM      6  C   UNL     1     -13.999  40.212 -10.395  1.00  0.00     0.134 A 
ATOM      7  C   UNL     1     -15.346  40.520 -10.167  1.00  0.00     0.093 A 
ATOM      8  C   UNL     1     -15.903  40.417  -8.890  1.00  0.00     0.123 A 
ATOM      9  C   UNL     1     -15.113  39.996  -7.823  1.00  0.00     0.094 A 
ATOM     10  C   UNL     1     -13.775  39.647  -8.026  1.00  0.00     0.146 A 
ATOM     11  O   UNL     1     -13.060  39.241  -6.984  1.00  0.00    -0.452 OA
ENDROOT
BRANCH   1  12
ATOM     12  C   UNL     1     -11.096  38.457  -5.826  1.00  0.00     0.025 A 
ATOM     13  C   UNL     1     -11.267  37.154  -5.334  1.00  0.00     0.016 A 
ATOM     14  C   UNL     1     -10.640  36.755  -4.152  1.00  0.00     0.051 A 
ATOM     15  C   UNL     1      -9.845  37.653  -3.435  1.00  0.00     0.157 A 
ATOM     16  C   UNL     1     -10.313  39.367  -5.092  1.00  0.00     0.062 A 
ATOM     17  C   UNL     1      -9.683  38.968  -3.904  1.00  0.00     0.158 A 
BRANCH  15  18
ATOM     18  O   UNL     1      -9.228  37.226  -2.260  1.00  0.00    -0.504 OA
ATOM     19  H   UNL     1      -8.836  37.877  -1.590  1.00  0.00     0.293 HD
ENDBRANCH  15  18
BRANCH  17  20
ATOM     20  O   UNL     1      -8.904  39.874  -3.187  1.00  0.00    -0.504 OA
ATOM     21  H   UNL     1      -9.314  40.514  -2.516  1.00  0.00     0.293 HD
ENDBRANCH  17  20
ENDBRANCH   1  12
BRANCH   2  22
ATOM     22  O   UNL     1      -9.847  38.356  -8.438  1.00  0.00    -0.502 OA
ATOM     23  H   UNL     1      -9.047  38.972  -8.515  1.00  0.00     0.293 HD
ENDBRANCH   2  22
BRANCH   6  24
ATOM     24  O   UNL     1     -13.516  40.440 -11.687  1.00  0.00    -0.507 OA
ATOM     25  H   UNL     1     -12.810  41.118 -11.925  1.00  0.00     0.293 HD
ENDBRANCH   6  24
BRANCH   8  26
ATOM     26  O   UNL     1     -17.239  40.741  -8.669  1.00  0.00    -0.508 OA
ATOM     27  H   UNL     1     -17.961  40.499  -9.337  1.00  0.00     0.293 HD
ENDBRANCH   8  26
TORSDOF 6
ENDMDL
MODEL 2
REMARK VINA RESULT:    -7.217      7.131      9.537
REMARK INTER + INTRA:          -9.025
REMARK INTER:                  -8.720
REMARK INTRA:                  -0.305
REMARK UNBOUND:                -0.331
REMARK SMILES O=c1c(O)c(-c2ccc(O)c(O)c2)oc2cc(O)cc(O)c12
REMARK SMILES IDX 5 1 3 2 2 3 1 4 22 5 20 6 19 7 17 8 16 9 15 10 14 11 6 12
REMARK SMILES IDX 7 13 8 14 9 15 13 16 11 17 10 18 12 20 4 22 21 24 18 26
REMARK H PARENT 10 19 12 21 4 23 21 25 18 27
REMARK Flexibility Score: inf
ROOT
ATOM      1  C   UNL     1     -15.879  35.894  -1.643  1.00  0.00     0.180 A 
ATOM      2  C   UNL     1     -17.010  36.649  -1.998  1.00  0.00     0.208 A 
ATOM      3  C   UNL     1     -17.809  37.197  -0.982  1.00  0.00     0.238 A 
ATOM      4  O   UNL     1     -18.849  37.826  -1.305  1.00  0.00    -0.285 OA
ATOM      5  C   UNL     1     -17.458  36.997   0.375  1.00  0.00     0.111 A 
ATOM      6  C   UNL     1     -18.174  37.539   1.485  1.00  0.00     0.134 A 
ATOM      7  C   UNL     1     -17.814  37.169   2.786  1.00  0.00     0.093 A 
ATOM      8  C   UNL     1     -16.724  36.326   3.020  1.00  0.00     0.123 A 
ATOM      9  C   UNL     1     -15.984  35.839   1.946  1.00  0.00     0.094 A 
ATOM     10  C   UNL     1     -16.340  36.163   0.634  1.00  0.00     0.146 A 
ATOM     11  O   UNL     1     -15.614  35.669  -0.361  1.00  0.00    -0.452 OA
ENDROOT
BRANCH   1  12
ATOM     12  C   UNL     1     -14.974  35.306  -2.657  1.00  0.00     0.025 A 
ATOM     13  C   UNL     1     -15.040  33.930  -2.927  1.00  0.00     0.016 A 
ATOM     14  C   UNL     1     -14.183  33.350  -3.864  1.00  0.00     0.051 A 
ATOM     15  C   UNL     1     -13.236  34.131  -4.535  1.00  0.00     0.157 A 
ATOM     16  C   UNL     1     -14.007  36.086  -3.317  1.00  0.00     0.062 A 
ATOM     17  C   UNL     1     -13.144  35.505  -4.257  1.00  0.00     0.158 A 
BRANCH  15  18
ATOM     18  O   UNL     1     -12.395  33.525  -5.468  1.00  0.00    -0.504 OA
ATOM     19  H   UNL     1     -11.392  33.673  -5.465  1.00  0.00     0.293 HD
ENDBRANCH  15  18
BRANCH  17  20
ATOM     20  O   UNL     1     -12.193  36.287  -4.911  1.00  0.00    -0.504 OA
ATOM     21  H   UNL     1     -11.269  36.435  -4.523  1.00  0.00     0.293 HD
ENDBRANCH  17  20
ENDBRANCH   1  12
BRANCH   2  22
ATOM     22  O   UNL     1     -17.349  36.816  -3.344  1.00  0.00    -0.502 OA
ATOM     23  H   UNL     1     -16.964  36.235  -4.077  1.00  0.00     0.293 HD
ENDBRANCH   2  22
BRANCH   6  24
ATOM     24  O   UNL     1     -19.219  38.461   1.365  1.00  0.00    -0.507 OA
ATOM     25  H   UNL     1     -19.471  38.935   0.512  1.00  0.00     0.293 HD
ENDBRANCH   6  24
BRANCH   8  26
ATOM     26  O   UNL     1     -16.363  35.975   4.318  1.00  0.00    -0.508 OA
ATOM     27  H   UNL     1     -16.933  35.352   4.877  1.00  0.00     0.293 HD
ENDBRANCH   8  26
TORSDOF 6
ENDMDL
MODEL 3
REMARK VINA RESULT:    -7.215      3.592      6.582
REMARK INTER + INTRA:          -9.022
REMARK INTER:                  -8.755
REMARK INTRA:                  -0.267
REMARK UNBOUND:                -0.331
REMARK SMILES O=c1c(O)c(-c2ccc(O)c(O)c2)oc2cc(O)cc(O)c12
REMARK SMILES IDX 5 1 3 2 2 3 1 4 22 5 20 6 19 7 17 8 16 9 15 10 14 11 6 12
REMARK SMILES IDX 7 13 8 14 9 15 13 16 11 17 10 18 12 20 4 22 21 24 18 26
REMARK H PARENT 10 19 12 21 4 23 21 25 18 27
REMARK Flexibility Score: inf
ROOT
ATOM      1  C   UNL     1     -11.650  38.545  -9.937  1.00  0.00     0.180 A 
ATOM      2  C   UNL     1     -11.373  37.304 -10.537  1.00  0.00     0.208 A 
ATOM      3  C   UNL     1     -10.094  37.075 -11.065  1.00  0.00     0.238 A 
ATOM      4  O   UNL     1      -9.868  35.983 -11.649  1.00  0.00    -0.285 OA
ATOM      5  C   UNL     1      -9.102  38.081 -10.973  1.00  0.00     0.111 A 
ATOM      6  C   UNL     1      -7.760  37.942 -11.440  1.00  0.00     0.134 A 
ATOM      7  C   UNL     1      -6.902  39.048 -11.415  1.00  0.00     0.093 A 
ATOM      8  C   UNL     1      -7.318  40.271 -10.881  1.00  0.00     0.123 A 
ATOM      9  C   UNL     1      -8.606  40.399 -10.370  1.00  0.00     0.094 A 
ATOM     10  C   UNL     1      -9.497  39.324 -10.413  1.00  0.00     0.146 A 
ATOM     11  O   UNL     1     -10.720  39.493  -9.924  1.00  0.00    -0.452 OA
ENDROOT
BRANCH   1  12
ATOM     12  C   UNL     1     -12.968  38.852  -9.335  1.00  0.00     0.025 A 
ATOM     13  C   UNL     1     -13.120  38.796  -7.940  1.00  0.00     0.016 A 
ATOM     14  C   UNL     1     -14.359  39.061  -7.352  1.00  0.00     0.051 A 
ATOM     15  C   UNL     1     -15.467  39.370  -8.146  1.00  0.00     0.157 A 
ATOM     16  C   UNL     1     -14.089  39.144 -10.133  1.00  0.00     0.062 A 
ATOM     17  C   UNL     1     -15.334  39.408  -9.544  1.00  0.00     0.158 A 
BRANCH  15  18
ATOM     18  O   UNL     1     -16.691  39.633  -7.531  1.00  0.00    -0.504 OA
ATOM     19  H   UNL     1     -17.339  40.322  -7.894  1.00  0.00     0.293 HD
ENDBRANCH  15  18
BRANCH  17  20
ATOM     20  O   UNL     1     -16.438  39.702 -10.343  1.00  0.00    -0.504 OA
ATOM     21  H   UNL     1     -17.136  39.002 -10.563  1.00  0.00     0.293 HD
ENDBRANCH  17  20
ENDBRANCH   1  12
BRANCH   2  22
ATOM     22  O   UNL     1     -12.373  36.333 -10.636  1.00  0.00    -0.502 OA
ATOM     23  H   UNL     1     -12.644  35.751  -9.853  1.00  0.00     0.293 HD
ENDBRANCH   2  22
BRANCH   6  24
ATOM     24  O   UNL     1      -7.217  36.740 -11.906  1.00  0.00    -0.507 OA
ATOM     25  H   UNL     1      -7.710  35.862 -11.939  1.00  0.00     0.293 HD
ENDBRANCH   6  24
BRANCH   8  26
ATOM     26  O   UNL     1      -6.452  41.361 -10.846  1.00  0.00    -0.508 OA
ATOM     27  H   UNL     1      -5.455  41.242 -10.714  1.00  0.00     0.293 HD
ENDBRANCH   8  26
TORSDOF 6
ENDMDL
MODEL 4
REMARK VINA RESULT:    -7.068      6.316     10.337
REMARK INTER + INTRA:          -8.845
REMARK INTER:                  -8.511
REMARK INTRA:                  -0.335
REMARK UNBOUND:                -0.331
REMARK SMILES O=c1c(O)c(-c2ccc(O)c(O)c2)oc2cc(O)cc(O)c12
REMARK SMILES IDX 5 1 3 2 2 3 1 4 22 5 20 6 19 7 17 8 16 9 15 10 14 11 6 12
REMARK SMILES IDX 7 13 8 14 9 15 13 16 11 17 10 18 12 20 4 22 21 24 18 26
REMARK H PARENT 10 19 12 21 4 23 21 25 18 27
REMARK Flexibility Score: inf
ROOT
ATOM      1  C   UNL     1     -14.962  37.478  -0.438  1.00  0.00     0.180 A 
ATOM      2  C   UNL     1     -15.827  37.029   0.576  1.00  0.00     0.208 A 
ATOM      3  C   UNL     1     -15.472  37.243   1.916  1.00  0.00     0.238 A 
ATOM      4  O   UNL     1     -16.223  36.791   2.819  1.00  0.00    -0.285 OA
ATOM      5  C   UNL     1     -14.266  37.917   2.227  1.00  0.00     0.111 A 
ATOM      6  C   UNL     1     -13.827  38.222   3.551  1.00  0.00     0.134 A 
ATOM      7  C   UNL     1     -12.556  38.775   3.746  1.00  0.00     0.093 A 
ATOM      8  C   UNL     1     -11.734  39.093   2.661  1.00  0.00     0.123 A 
ATOM      9  C   UNL     1     -12.178  38.853   1.364  1.00  0.00     0.094 A 
ATOM     10  C   UNL     1     -13.427  38.269   1.139  1.00  0.00     0.146 A 
ATOM     11  O   UNL     1     -13.808  38.048  -0.114  1.00  0.00    -0.452 OA
ENDROOT
BRANCH   1  12
ATOM     12  C   UNL     1     -15.280  37.312  -1.875  1.00  0.00     0.025 A 
ATOM     13  C   UNL     1     -14.802  36.185  -2.563  1.00  0.00     0.016 A 
ATOM     14  C   UNL     1     -15.072  36.018  -3.923  1.00  0.00     0.051 A 
ATOM     15  C   UNL     1     -15.808  36.980  -4.621  1.00  0.00     0.157 A 
ATOM     16  C   UNL     1     -16.004  38.288  -2.584  1.00  0.00     0.062 A 
ATOM     17  C   UNL     1     -16.273  38.123  -3.950  1.00  0.00     0.158 A 
BRANCH  15  18
ATOM     18  O   UNL     1     -16.065  36.785  -5.978  1.00  0.00    -0.504 OA
ATOM     19  H   UNL     1     -16.561  37.470  -6.536  1.00  0.00     0.293 HD
ENDBRANCH  15  18
BRANCH  17  20
ATOM     20  O   UNL     1     -16.997  39.093  -4.642  1.00  0.00    -0.504 OA
ATOM     21  H   UNL     1     -17.924  38.906  -5.005  1.00  0.00     0.293 HD
ENDBRANCH  17  20
ENDBRANCH   1  12
BRANCH   2  22
ATOM     22  O   UNL     1     -17.002  36.347   0.246  1.00  0.00    -0.502 OA
ATOM     23  H   UNL     1     -17.440  35.685   0.874  1.00  0.00     0.293 HD
ENDBRANCH   2  22
BRANCH   6  24
ATOM     24  O   UNL     1     -14.607  38.030   4.696  1.00  0.00    -0.507 OA
ATOM     25  H   UNL     1     -15.610  38.123   4.730  1.00  0.00     0.293 HD
ENDBRANCH   6  24
BRANCH   8  26
ATOM     26  O   UNL     1     -10.477  39.658   2.864  1.00  0.00    -0.508 OA
ATOM     27  H   UNL     1      -9.633  39.207   2.531  1.00  0.00     0.293 HD
ENDBRANCH   8  26
TORSDOF 6
ENDMDL
MODEL 5
REMARK VINA RESULT:    -7.063      6.798      9.198
REMARK INTER + INTRA:          -8.838
REMARK INTER:                  -8.550
REMARK INTRA:                  -0.288
REMARK UNBOUND:                -0.331
REMARK SMILES O=c1c(O)c(-c2ccc(O)c(O)c2)oc2cc(O)cc(O)c12
REMARK SMILES IDX 5 1 3 2 2 3 1 4 22 5 20 6 19 7 17 8 16 9 15 10 14 11 6 12
REMARK SMILES IDX 7 13 8 14 9 15 13 16 11 17 10 18 12 20 4 22 21 24 18 26
REMARK H PARENT 10 19 12 21 4 23 21 25 18 27
REMARK Flexibility Score: inf
ROOT
ATOM      1  C   UNL     1     -15.071  36.195  -0.248  1.00  0.00     0.180 A 
ATOM      2  C   UNL     1     -13.795  36.787  -0.226  1.00  0.00     0.208 A 
ATOM      3  C   UNL     1     -12.866  36.437  -1.217  1.00  0.00     0.238 A 
ATOM      4  O   UNL     1     -11.709  36.929  -1.160  1.00  0.00    -0.285 OA
ATOM      5  C   UNL     1     -13.226  35.513  -2.227  1.00  0.00     0.111 A 
ATOM      6  C   UNL     1     -12.376  35.117  -3.303  1.00  0.00     0.134 A 
ATOM      7  C   UNL     1     -12.789  34.099  -4.171  1.00  0.00     0.093 A 
ATOM      8  C   UNL     1     -14.049  33.507  -4.039  1.00  0.00     0.123 A 
ATOM      9  C   UNL     1     -14.909  33.929  -3.029  1.00  0.00     0.094 A 
ATOM     10  C   UNL     1     -14.510  34.918  -2.126  1.00  0.00     0.146 A 
ATOM     11  O   UNL     1     -15.357  35.283  -1.170  1.00  0.00    -0.452 OA
ENDROOT
BRANCH   1  12
ATOM     12  C   UNL     1     -16.113  36.532   0.748  1.00  0.00     0.025 A 
ATOM     13  C   UNL     1     -16.075  35.935   2.018  1.00  0.00     0.016 A 
ATOM     14  C   UNL     1     -17.059  36.222   2.965  1.00  0.00     0.051 A 
ATOM     15  C   UNL     1     -18.105  37.096   2.657  1.00  0.00     0.157 A 
ATOM     16  C   UNL     1     -17.178  37.396   0.431  1.00  0.00     0.062 A 
ATOM     17  C   UNL     1     -18.168  37.683   1.381  1.00  0.00     0.158 A 
BRANCH  15  18
ATOM     18  O   UNL     1     -19.072  37.367   3.624  1.00  0.00    -0.504 OA
ATOM     19  H   UNL     1     -19.797  36.700   3.862  1.00  0.00     0.293 HD
ENDBRANCH  15  18
BRANCH  17  20
ATOM     20  O   UNL     1     -19.216  38.545   1.061  1.00  0.00    -0.504 OA
ATOM     21  H   UNL     1     -20.130  38.453   1.488  1.00  0.00     0.293 HD
ENDBRANCH  17  20
ENDBRANCH   1  12
BRANCH   2  22
ATOM     22  O   UNL     1     -13.454  37.680   0.794  1.00  0.00    -0.502 OA
ATOM     23  H   UNL     1     -14.101  38.373   1.148  1.00  0.00     0.293 HD
ENDBRANCH   2  22
BRANCH   6  24
ATOM     24  O   UNL     1     -11.139  35.708  -3.579  1.00  0.00    -0.507 OA
ATOM     25  H   UNL     1     -10.664  35.660  -4.466  1.00  0.00     0.293 HD
ENDBRANCH   6  24
BRANCH   8  26
ATOM     26  O   UNL     1     -14.459  32.506  -4.917  1.00  0.00    -0.508 OA
ATOM     27  H   UNL     1     -14.181  32.509  -5.891  1.00  0.00     0.293 HD
ENDBRANCH   8  26
TORSDOF 6
ENDMDL
MODEL 6
REMARK VINA RESULT:    -7.018      4.278      7.127
REMARK INTER + INTRA:          -8.784
REMARK INTER:                  -8.450
REMARK INTRA:                  -0.334
REMARK UNBOUND:                -0.331
REMARK SMILES O=c1c(O)c(-c2ccc(O)c(O)c2)oc2cc(O)cc(O)c12
REMARK SMILES IDX 5 1 3 2 2 3 1 4 22 5 20 6 19 7 17 8 16 9 15 10 14 11 6 12
REMARK SMILES IDX 7 13 8 14 9 15 13 16 11 17 10 18 12 20 4 22 21 24 18 26
REMARK H PARENT 10 19 12 21 4 23 21 25 18 27
REMARK Flexibility Score: inf
ROOT
ATOM      1  C   UNL     1     -15.051  38.870  -5.767  1.00  0.00     0.180 A 
ATOM      2  C   UNL     1     -14.341  37.660  -5.676  1.00  0.00     0.208 A 
ATOM      3  C   UNL     1     -14.678  36.748  -4.665  1.00  0.00     0.238 A 
ATOM      4  O   UNL     1     -14.003  35.691  -4.555  1.00  0.00    -0.285 OA
ATOM      5  C   UNL     1     -15.731  37.047  -3.768  1.00  0.00     0.111 A 
ATOM      6  C   UNL     1     -16.184  36.177  -2.730  1.00  0.00     0.134 A 
ATOM      7  C   UNL     1     -17.146  36.631  -1.819  1.00  0.00     0.093 A 
ATOM      8  C   UNL     1     -17.718  37.900  -1.947  1.00  0.00     0.123 A 
ATOM      9  C   UNL     1     -17.325  38.732  -2.992  1.00  0.00     0.094 A 
ATOM     10  C   UNL     1     -16.342  38.322  -3.895  1.00  0.00     0.146 A 
ATOM     11  O   UNL     1     -15.989  39.151  -4.870  1.00  0.00    -0.452 OA
ENDROOT
BRANCH   1  12
ATOM     12  C   UNL     1     -14.770  39.871  -6.822  1.00  0.00     0.025 A 
ATOM     13  C   UNL     1     -13.886  40.928  -6.553  1.00  0.00     0.016 A 
ATOM     14  C   UNL     1     -13.623  41.895  -7.525  1.00  0.00     0.051 A 
ATOM     15  C   UNL     1     -14.249  41.832  -8.774  1.00  0.00     0.157 A 
ATOM     16  C   UNL     1     -15.415  39.820  -8.071  1.00  0.00     0.062 A 
ATOM     17  C   UNL     1     -15.153  40.792  -9.048  1.00  0.00     0.158 A 
BRANCH  15  18
ATOM     18  O   UNL     1     -13.964  42.810  -9.726  1.00  0.00    -0.504 OA
ATOM     19  H   UNL     1     -14.692  43.355 -10.173  1.00  0.00     0.293 HD
ENDBRANCH  15  18
BRANCH  17  20
ATOM     20  O   UNL     1     -15.792  40.730 -10.285  1.00  0.00    -0.504 OA
ATOM     21  H   UNL     1     -16.499  41.404 -10.552  1.00  0.00     0.293 HD
ENDBRANCH  17  20
ENDBRANCH   1  12
BRANCH   2  22
ATOM     22  O   UNL     1     -13.290  37.394  -6.559  1.00  0.00    -0.502 OA
ATOM     23  H   UNL     1     -13.349  36.680  -7.274  1.00  0.00     0.293 HD
ENDBRANCH   2  22
BRANCH   6  24
ATOM     24  O   UNL     1     -15.745  34.859  -2.570  1.00  0.00    -0.507 OA
ATOM     25  H   UNL     1     -16.345  34.074  -2.376  1.00  0.00     0.293 HD
ENDBRANCH   6  24
BRANCH   8  26
ATOM     26  O   UNL     1     -18.686  38.337  -1.047  1.00  0.00    -0.508 OA
ATOM     27  H   UNL     1     -18.439  38.657  -0.117  1.00  0.00     0.293 HD
ENDBRANCH   8  26
TORSDOF 6
ENDMDL
MODEL 7
REMARK VINA RESULT:    -7.016      1.491      2.790
REMARK INTER + INTRA:          -8.783
REMARK INTER:                  -8.840
REMARK INTRA:                   0.057
REMARK UNBOUND:                -0.331
REMARK SMILES O=c1c(O)c(-c2ccc(O)c(O)c2)oc2cc(O)cc(O)c12
REMARK SMILES IDX 5 1 3 2 2 3 1 4 22 5 20 6 19 7 17 8 16 9 15 10 14 11 6 12
REMARK SMILES IDX 7 13 8 14 9 15 13 16 11 17 10 18 12 20 4 22 21 24 18 26
REMARK H PARENT 10 19 12 21 4 23 21 25 18 27
REMARK Flexibility Score: inf
ROOT
ATOM      1  C   UNL     1     -12.591  39.063  -6.219  1.00  0.00     0.180 A 
ATOM      2  C   UNL     1     -13.955  38.729  -6.152  1.00  0.00     0.208 A 
ATOM      3  C   UNL     1     -14.819  39.189  -7.157  1.00  0.00     0.238 A 
ATOM      4  O   UNL     1     -16.047  38.932  -7.062  1.00  0.00    -0.285 OA
ATOM      5  C   UNL     1     -14.307  39.964  -8.226  1.00  0.00     0.111 A 
ATOM      6  C   UNL     1     -15.085  40.450  -9.320  1.00  0.00     0.134 A 
ATOM      7  C   UNL     1     -14.501  41.316 -10.252  1.00  0.00     0.093 A 
ATOM      8  C   UNL     1     -13.150  41.662 -10.165  1.00  0.00     0.123 A 
ATOM      9  C   UNL     1     -12.368  41.146  -9.135  1.00  0.00     0.094 A 
ATOM     10  C   UNL     1     -12.931  40.308  -8.170  1.00  0.00     0.146 A 
ATOM     11  O   UNL     1     -12.153  39.846  -7.198  1.00  0.00    -0.452 OA
ENDROOT
BRANCH   1  12
ATOM     12  C   UNL     1     -11.614  38.594  -5.210  1.00  0.00     0.025 A 
ATOM     13  C   UNL     1     -11.614  37.244  -4.824  1.00  0.00     0.016 A 
ATOM     14  C   UNL     1     -10.716  36.783  -3.859  1.00  0.00     0.051 A 
ATOM     15  C   UNL     1      -9.816  37.664  -3.253  1.00  0.00     0.157 A 
ATOM     16  C   UNL     1     -10.722  39.483  -4.584  1.00  0.00     0.062 A 
ATOM     17  C   UNL     1      -9.821  39.022  -3.613  1.00  0.00     0.158 A 
BRANCH  15  18
ATOM     18  O   UNL     1      -8.929  37.175  -2.294  1.00  0.00    -0.504 OA
ATOM     19  H   UNL     1      -9.131  36.348  -1.746  1.00  0.00     0.293 HD
ENDBRANCH  15  18
BRANCH  17  20
ATOM     20  O   UNL     1      -8.936  39.910  -3.003  1.00  0.00    -0.504 OA
ATOM     21  H   UNL     1      -8.880  39.996  -1.995  1.00  0.00     0.293 HD
ENDBRANCH  17  20
ENDBRANCH   1  12
BRANCH   2  22
ATOM     22  O   UNL     1     -14.443  37.981  -5.076  1.00  0.00    -0.502 OA
ATOM     23  H   UNL     1     -14.700  38.403  -4.193  1.00  0.00     0.293 HD
ENDBRANCH   2  22
BRANCH   6  24
ATOM     24  O   UNL     1     -16.417  40.091  -9.550  1.00  0.00    -0.507 OA
ATOM     25  H   UNL     1     -16.813  39.906 -10.458  1.00  0.00     0.293 HD
ENDBRANCH   6  24
BRANCH   8  26
ATOM     26  O   UNL     1     -12.572  42.512 -11.106  1.00  0.00    -0.508 OA
ATOM     27  H   UNL     1     -11.634  42.356 -11.455  1.00  0.00     0.293 HD
ENDBRANCH   8  26
TORSDOF 6
ENDMDL
MODEL 8
REMARK VINA RESULT:    -6.942      2.446      3.221
REMARK INTER + INTRA:          -8.693
REMARK INTER:                  -8.388
REMARK INTRA:                  -0.304
REMARK UNBOUND:                -0.331
REMARK SMILES O=c1c(O)c(-c2ccc(O)c(O)c2)oc2cc(O)cc(O)c12
REMARK SMILES IDX 5 1 3 2 2 3 1 4 22 5 20 6 19 7 17 8 16 9 15 10 14 11 6 12
REMARK SMILES IDX 7 13 8 14 9 15 13 16 11 17 10 18 12 20 4 22 21 24 18 26
REMARK H PARENT 10 19 12 21 4 23 21 25 18 27
REMARK Flexibility Score: inf
ROOT
ATOM      1  C   UNL     1     -12.327  37.671  -6.759  1.00  0.00     0.180 A 
ATOM      2  C   UNL     1     -11.196  37.866  -7.570  1.00  0.00     0.208 A 
ATOM      3  C   UNL     1     -11.165  38.966  -8.441  1.00  0.00     0.238 A 
ATOM      4  O   UNL     1     -10.173  39.105  -9.203  1.00  0.00    -0.285 OA
ATOM      5  C   UNL     1     -12.257  39.867  -8.479  1.00  0.00     0.111 A 
ATOM      6  C   UNL     1     -12.314  41.036  -9.295  1.00  0.00     0.134 A 
ATOM      7  C   UNL     1     -13.497  41.783  -9.349  1.00  0.00     0.093 A 
ATOM      8  C   UNL     1     -14.603  41.438  -8.567  1.00  0.00     0.123 A 
ATOM      9  C   UNL     1     -14.536  40.333  -7.723  1.00  0.00     0.094 A 
ATOM     10  C   UNL     1     -13.381  39.547  -7.674  1.00  0.00     0.146 A 
ATOM     11  O   UNL     1     -13.363  38.496  -6.864  1.00  0.00    -0.452 OA
ENDROOT
BRANCH   1  12
ATOM     12  C   UNL     1     -12.423  36.549  -5.797  1.00  0.00     0.025 A 
ATOM     13  C   UNL     1     -12.062  36.755  -4.456  1.00  0.00     0.016 A 
ATOM     14  C   UNL     1     -12.124  35.706  -3.537  1.00  0.00     0.051 A 
ATOM     15  C   UNL     1     -12.532  34.432  -3.944  1.00  0.00     0.157 A 
ATOM     16  C   UNL     1     -12.814  35.262  -6.209  1.00  0.00     0.062 A 
ATOM     17  C   UNL     1     -12.875  34.207  -5.288  1.00  0.00     0.158 A 
BRANCH  15  18
ATOM     18  O   UNL     1     -12.588  33.404  -3.003  1.00  0.00    -0.504 OA
ATOM     19  H   UNL     1     -12.869  32.463  -3.250  1.00  0.00     0.293 HD
ENDBRANCH  15  18
BRANCH  17  20
ATOM     20  O   UNL     1     -13.270  32.936  -5.704  1.00  0.00    -0.504 OA
ATOM     21  H   UNL     1     -13.796  32.318  -5.098  1.00  0.00     0.293 HD
ENDBRANCH  17  20
ENDBRANCH   1  12
BRANCH   2  22
ATOM     22  O   UNL     1     -10.138  36.953  -7.532  1.00  0.00    -0.502 OA
ATOM     23  H   UNL     1      -9.171  37.237  -7.624  1.00  0.00     0.293 HD
ENDBRANCH   2  22
BRANCH   6  24
ATOM     24  O   UNL     1     -11.236  41.520 -10.043  1.00  0.00    -0.507 OA
ATOM     25  H   UNL     1     -11.272  41.741 -11.025  1.00  0.00     0.293 HD
ENDBRANCH   6  24
BRANCH   8  26
ATOM     26  O   UNL     1     -15.771  42.196  -8.615  1.00  0.00    -0.508 OA
ATOM     27  H   UNL     1     -16.446  42.083  -9.362  1.00  0.00     0.293 HD
ENDBRANCH   8  26
TORSDOF 6
ENDMDL
MODEL 9
REMARK VINA RESULT:    -6.819      2.038      2.551
REMARK INTER + INTRA:          -8.545
REMARK INTER:                  -8.218
REMARK INTRA:                  -0.327
REMARK UNBOUND:                -0.331
REMARK SMILES O=c1c(O)c(-c2ccc(O)c(O)c2)oc2cc(O)cc(O)c12
REMARK SMILES IDX 5 1 3 2 2 3 1 4 22 5 20 6 19 7 17 8 16 9 15 10 14 11 6 12
REMARK SMILES IDX 7 13 8 14 9 15 13 16 11 17 10 18 12 20 4 22 21 24 18 26
REMARK H PARENT 10 19 12 21 4 23 21 25 18 27
REMARK Flexibility Score: inf
ROOT
ATOM      1  C   UNL     1     -11.716  38.783  -5.142  1.00  0.00     0.180 A 
ATOM      2  C   UNL     1     -10.688  38.582  -6.079  1.00  0.00     0.208 A 
ATOM      3  C   UNL     1     -10.756  39.242  -7.316  1.00  0.00     0.238 A 
ATOM      4  O   UNL     1      -9.861  39.016  -8.171  1.00  0.00    -0.285 OA
ATOM      5  C   UNL     1     -11.841  40.108  -7.594  1.00  0.00     0.111 A 
ATOM      6  C   UNL     1     -11.990  40.859  -8.799  1.00  0.00     0.134 A 
ATOM      7  C   UNL     1     -13.169  41.582  -9.020  1.00  0.00     0.093 A 
ATOM      8  C   UNL     1     -14.176  41.632  -8.053  1.00  0.00     0.123 A 
ATOM      9  C   UNL     1     -14.013  40.951  -6.849  1.00  0.00     0.094 A 
ATOM     10  C   UNL     1     -12.864  40.192  -6.614  1.00  0.00     0.146 A 
ATOM     11  O   UNL     1     -12.754  39.549  -5.457  1.00  0.00    -0.452 OA
ENDROOT
BRANCH   1  12
ATOM     12  C   UNL     1     -11.702  38.142  -3.807  1.00  0.00     0.025 A 
ATOM     13  C   UNL     1     -12.449  36.972  -3.594  1.00  0.00     0.016 A 
ATOM     14  C   UNL     1     -12.467  36.362  -2.339  1.00  0.00     0.051 A 
ATOM     15  C   UNL     1     -11.754  36.917  -1.272  1.00  0.00     0.157 A 
ATOM     16  C   UNL     1     -11.001  38.710  -2.728  1.00  0.00     0.062 A 
ATOM     17  C   UNL     1     -11.020  38.100  -1.465  1.00  0.00     0.158 A 
BRANCH  15  18
ATOM     18  O   UNL     1     -11.788  36.284  -0.030  1.00  0.00    -0.504 OA
ATOM     19  H   UNL     1     -12.415  36.580   0.708  1.00  0.00     0.293 HD
ENDBRANCH  15  18
BRANCH  17  20
ATOM     20  O   UNL     1     -10.317  38.667  -0.403  1.00  0.00    -0.504 OA
ATOM     21  H   UNL     1     -10.035  38.118   0.400  1.00  0.00     0.293 HD
ENDBRANCH  17  20
ENDBRANCH   1  12
BRANCH   2  22
ATOM     22  O   UNL     1      -9.637  37.706  -5.792  1.00  0.00    -0.502 OA
ATOM     23  H   UNL     1      -8.803  37.654  -6.362  1.00  0.00     0.293 HD
ENDBRANCH   2  22
BRANCH   6  24
ATOM     24  O   UNL     1     -11.006  40.950  -9.788  1.00  0.00    -0.507 OA
ATOM     25  H   UNL     1     -10.699  40.183 -10.365  1.00  0.00     0.293 HD
ENDBRANCH   6  24
BRANCH   8  26
ATOM     26  O   UNL     1     -15.338  42.367  -8.274  1.00  0.00    -0.508 OA
ATOM     27  H   UNL     1     -16.134  41.967  -8.757  1.00  0.00     0.293 HD
ENDBRANCH   8  26
TORSDOF 6
ENDMDL
