MODEL 1
REMARK VINA RESULT:    -0.942      0.000      0.000
REMARK INTER + INTRA:          -0.901
REMARK INTER:                  -1.135
REMARK INTRA:                   0.234
REMARK UNBOUND:                 0.234
REMARK SMILES O=c1c(O)c(-c2ccc(O)c(O)c2)oc2cc(O)cc(O)c12
REMARK SMILES IDX 5 1 3 2 2 3 1 4 22 5 20 6 19 7 17 8 16 9 15 10 14 11 6 12
REMARK SMILES IDX 7 13 8 14 9 15 13 16 11 17 10 18 12 20 4 22 21 24 18 26
REMARK H PARENT 10 19 12 21 4 23 21 25 18 27
REMARK Flexibility Score: inf
ROOT
ATOM      1  C   UNL     1      26.482 -18.918   0.948  1.00  0.00     0.180 A 
ATOM      2  C   UNL     1      26.769 -19.298   2.274  1.00  0.00     0.208 A 
ATOM      3  C   UNL     1      28.109 -19.367   2.685  1.00  0.00     0.238 A 
ATOM      4  O   UNL     1      28.379 -19.716   3.866  1.00  0.00    -0.285 OA
ATOM      5  C   UNL     1      29.135 -19.037   1.775  1.00  0.00     0.111 A 
ATOM      6  C   UNL     1      30.510 -19.077   2.110  1.00  0.00     0.134 A 
ATOM      7  C   UNL     1      31.471 -18.725   1.149  1.00  0.00     0.093 A 
ATOM      8  C   UNL     1      31.085 -18.335  -0.135  1.00  0.00     0.123 A 
ATOM      9  C   UNL     1      29.728 -18.295  -0.472  1.00  0.00     0.094 A 
ATOM     10  C   UNL     1      28.755 -18.643   0.470  1.00  0.00     0.146 A 
ATOM     11  O   UNL     1      27.474 -18.601   0.122  1.00  0.00    -0.452 OA
ENDROOT
BRANCH   1  12
ATOM     12  C   UNL     1      25.095 -18.842   0.435  1.00  0.00     0.025 A 
ATOM     13  C   UNL     1      24.793 -17.950  -0.606  1.00  0.00     0.016 A 
ATOM     14  C   UNL     1      23.496 -17.875  -1.121  1.00  0.00     0.051 A 
ATOM     15  C   UNL     1      22.485 -18.701  -0.612  1.00  0.00     0.157 A 
ATOM     16  C   UNL     1      24.083 -19.683   0.930  1.00  0.00     0.062 A 
ATOM     17  C   UNL     1      22.782 -19.612   0.416  1.00  0.00     0.158 A 
BRANCH  15  18
ATOM     18  O   UNL     1      21.191 -18.623  -1.125  1.00  0.00    -0.504 OA
ATOM     19  H   UNL     1      20.470 -19.278  -0.848  1.00  0.00     0.293 HD
ENDBRANCH  15  18
BRANCH  17  20
ATOM     20  O   UNL     1      21.802 -20.458   0.934  1.00  0.00    -0.504 OA
ATOM     21  H   UNL     1      20.839 -20.163   1.043  1.00  0.00     0.293 HD
ENDBRANCH  17  20
ENDBRANCH   1  12
BRANCH   2  22
ATOM     22  O   UNL     1      25.732 -19.571   3.171  1.00  0.00    -0.502 OA
ATOM     23  H   UNL     1      25.021 -18.887   3.402  1.00  0.00     0.293 HD
ENDBRANCH   2  22
BRANCH   6  24
ATOM     24  O   UNL     1      30.928 -19.462   3.384  1.00  0.00    -0.507 OA
ATOM     25  H   UNL     1      30.390 -20.108   3.949  1.00  0.00     0.293 HD
ENDBRANCH   6  24
BRANCH   8  26
ATOM     26  O   UNL     1      32.058 -17.990  -1.069  1.00  0.00    -0.508 OA
ATOM     27  H   UNL     1      32.373 -17.033  -1.177  1.00  0.00     0.293 HD
ENDBRANCH   8  26
TORSDOF 6
ENDMDL
MODEL 2
REMARK VINA RESULT:     1.291      1.214      2.973
REMARK INTER + INTRA:           1.789
REMARK INTER:                   1.334
REMARK INTRA:                   0.455
REMARK UNBOUND:                 0.234
REMARK SMILES O=c1c(O)c(-c2ccc(O)c(O)c2)oc2cc(O)cc(O)c12
REMARK SMILES IDX 5 1 3 2 2 3 1 4 22 5 20 6 19 7 17 8 16 9 15 10 14 11 6 12
REMARK SMILES IDX 7 13 8 14 9 15 13 16 11 17 10 18 12 20 4 22 21 24 18 26
REMARK H PARENT 10 19 12 21 4 23 21 25 18 27
REMARK Flexibility Score: inf
ROOT
ATOM      1  C   UNL     1      26.500 -18.890   0.911  1.00  0.00     0.180 A 
ATOM      2  C   UNL     1      27.584 -18.404   0.155  1.00  0.00     0.208 A 
ATOM      3  C   UNL     1      28.878 -18.488   0.692  1.00  0.00     0.238 A 
ATOM      4  O   UNL     1      29.855 -18.047   0.029  1.00  0.00    -0.285 OA
ATOM      5  C   UNL     1      29.069 -19.072   1.961  1.00  0.00     0.111 A 
ATOM      6  C   UNL     1      30.339 -19.199   2.573  1.00  0.00     0.134 A 
ATOM      7  C   UNL     1      30.447 -19.800   3.836  1.00  0.00     0.093 A 
ATOM      8  C   UNL     1      29.313 -20.276   4.498  1.00  0.00     0.123 A 
ATOM      9  C   UNL     1      28.055 -20.153   3.899  1.00  0.00     0.094 A 
ATOM     10  C   UNL     1      27.926 -19.556   2.642  1.00  0.00     0.146 A 
ATOM     11  O   UNL     1      26.719 -19.446   2.099  1.00  0.00    -0.452 OA
ENDROOT
BRANCH   1  12
ATOM     12  C   UNL     1      25.105 -18.818   0.421  1.00  0.00     0.025 A 
ATOM     13  C   UNL     1      24.787 -17.945  -0.632  1.00  0.00     0.016 A 
ATOM     14  C   UNL     1      23.482 -17.875  -1.125  1.00  0.00     0.051 A 
ATOM     15  C   UNL     1      22.477 -18.688  -0.583  1.00  0.00     0.157 A 
ATOM     16  C   UNL     1      24.098 -19.646   0.949  1.00  0.00     0.062 A 
ATOM     17  C   UNL     1      22.789 -19.581   0.456  1.00  0.00     0.158 A 
BRANCH  15  18
ATOM     18  O   UNL     1      21.175 -18.614  -1.075  1.00  0.00    -0.504 OA
ATOM     19  H   UNL     1      20.538 -19.400  -1.009  1.00  0.00     0.293 HD
ENDBRANCH  15  18
BRANCH  17  20
ATOM     20  O   UNL     1      21.815 -20.413   1.007  1.00  0.00    -0.504 OA
ATOM     21  H   UNL     1      21.349 -20.192   1.879  1.00  0.00     0.293 HD
ENDBRANCH  17  20
ENDBRANCH   1  12
BRANCH   2  22
ATOM     22  O   UNL     1      27.374 -17.876  -1.122  1.00  0.00    -0.502 OA
ATOM     23  H   UNL     1      27.010 -16.941  -1.269  1.00  0.00     0.293 HD
ENDBRANCH   2  22
BRANCH   6  24
ATOM     24  O   UNL     1      31.492 -18.734   1.938  1.00  0.00    -0.507 OA
ATOM     25  H   UNL     1      31.647 -17.747   1.773  1.00  0.00     0.293 HD
ENDBRANCH   6  24
BRANCH   8  26
ATOM     26  O   UNL     1      29.447 -20.870   5.750  1.00  0.00    -0.508 OA
ATOM     27  H   UNL     1      29.142 -21.822   5.921  1.00  0.00     0.293 HD
ENDBRANCH   8  26
TORSDOF 6
ENDMDL
