MODEL 1
REMARK VINA RESULT:    -4.286      0.000      0.000
REMARK INTER + INTRA:         -17.050
REMARK INTER:                 -10.801
REMARK INTRA:                  -6.249
REMARK UNBOUND:                -6.249
REMARK SMILES CCCCCCCCCCCCCCCCCCCCCCCCCCCC(=O)[O-]
REMARK SMILES IDX 15 1 16 2 17 3 18 4 19 5 20 6 21 7 22 8 23 9 24 10 25 11
REMARK SMILES IDX 26 12 27 13 28 14 29 15 30 16 14 17 13 18 12 19 11 20 10 21
REMARK SMILES IDX 9 22 8 23 7 24 6 25 5 26 4 27 3 28 2 29 1 30
REMARK H PARENT
REMARK Flexibility Score: inf
ROOT
ATOM      1  C   UNL     1      31.811  32.176  16.137  1.00  0.00     0.000 C 
ENDROOT
BRANCH   1   2
ATOM      2  C   UNL     1      31.450  31.231  17.298  1.00  0.00     0.000 C 
BRANCH   2   3
ATOM      3  C   UNL     1      30.219  30.356  16.977  1.00  0.00     0.000 C 
BRANCH   3   4
ATOM      4  C   UNL     1      29.431  30.830  15.742  1.00  0.00     0.000 C 
BRANCH   4   5
ATOM      5  C   UNL     1      29.086  29.685  14.780  1.00  0.00     0.000 C 
BRANCH   5   6
ATOM      6  C   UNL     1      29.980  29.712  13.534  1.00  0.00     0.000 C 
BRANCH   6   7
ATOM      7  C   UNL     1      29.805  31.033  12.769  1.00  0.00     0.000 C 
BRANCH   7   8
ATOM      8  C   UNL     1      30.592  31.061  11.451  1.00  0.00     0.000 C 
BRANCH   8   9
ATOM      9  C   UNL     1      32.109  30.921  11.666  1.00  0.00     0.000 C 
BRANCH   9  10
ATOM     10  C   UNL     1      32.806  30.191  10.507  1.00  0.00     0.000 C 
BRANCH  10  11
ATOM     11  C   UNL     1      33.337  28.787  10.853  1.00  0.00     0.000 C 
BRANCH  11  12
ATOM     12  C   UNL     1      32.285  27.670  10.691  1.00  0.00     0.006 C 
BRANCH  12  13
ATOM     13  C   UNL     1      31.916  27.014  12.028  1.00  0.00     0.053 C 
BRANCH  13  14
ATOM     14  C   UNL     1      32.674  25.736  12.210  1.00  0.00     0.041 C 
ATOM     15  O   UNL     1      33.921  25.757  12.386  1.00  0.00    -0.550 OA
ATOM     16  O   UNL     1      31.993  24.529  12.252  1.00  0.00    -0.550 OA
ENDBRANCH  13  14
ENDBRANCH  12  13
ENDBRANCH  11  12
ENDBRANCH  10  11
ENDBRANCH   9  10
ENDBRANCH   8   9
ENDBRANCH   7   8
ENDBRANCH   6   7
ENDBRANCH   5   6
ENDBRANCH   4   5
ENDBRANCH   3   4
ENDBRANCH   2   3
ENDBRANCH   1   2
BRANCH   1  17
ATOM     17  C   UNL     1      32.856  31.572  15.186  1.00  0.00     0.000 C 
BRANCH  17  18
ATOM     18  C   UNL     1      33.504  30.300  15.755  1.00  0.00     0.000 C 
BRANCH  18  19
ATOM     19  C   UNL     1      33.300  29.074  14.851  1.00  0.00     0.000 C 
BRANCH  19  20
ATOM     20  C   UNL     1      34.008  27.814  15.383  1.00  0.00     0.000 C 
BRANCH  20  21
ATOM     21  C   UNL     1      33.032  26.673  15.710  1.00  0.00     0.000 C 
BRANCH  21  22
ATOM     22  C   UNL     1      31.556  27.102  15.601  1.00  0.00    -0.000 C 
BRANCH  22  23
ATOM     23  C   UNL     1      30.593  25.906  15.436  1.00  0.00    -0.000 C 
BRANCH  23  24
ATOM     24  C   UNL     1      29.185  26.137  16.022  1.00  0.00    -0.000 C 
BRANCH  24  25
ATOM     25  C   UNL     1      28.044  26.225  14.992  1.00  0.00    -0.000 C 
BRANCH  25  26
ATOM     26  C   UNL     1      28.487  26.139  13.518  1.00  0.00    -0.000 C 
BRANCH  26  27
ATOM     27  C   UNL     1      27.647  26.976  12.537  1.00  0.00    -0.000 C 
BRANCH  27  28
ATOM     28  C   UNL     1      28.367  27.289  11.209  1.00  0.00    -0.000 C 
BRANCH  28  29
ATOM     29  C   UNL     1      27.902  28.613  10.583  1.00  0.00    -0.003 C 
ATOM     30  C   UNL     1      26.847  29.289  11.452  1.00  0.00     0.004 C 
ENDBRANCH  28  29
ENDBRANCH  27  28
ENDBRANCH  26  27
ENDBRANCH  25  26
ENDBRANCH  24  25
ENDBRANCH  23  24
ENDBRANCH  22  23
ENDBRANCH  21  22
ENDBRANCH  20  21
ENDBRANCH  19  20
ENDBRANCH  18  19
ENDBRANCH  17  18
ENDBRANCH   1  17
TORSDOF 26
ENDMDL
MODEL 2
REMARK VINA RESULT:    -4.264      1.915      2.879
REMARK INTER + INTRA:         -16.994
REMARK INTER:                 -12.087
REMARK INTRA:                  -4.907
REMARK UNBOUND:                -6.249
REMARK SMILES CCCCCCCCCCCCCCCCCCCCCCCCCCCC(=O)[O-]
REMARK SMILES IDX 15 1 16 2 17 3 18 4 19 5 20 6 21 7 22 8 23 9 24 10 25 11
REMARK SMILES IDX 26 12 27 13 28 14 29 15 30 16 14 17 13 18 12 19 11 20 10 21
REMARK SMILES IDX 9 22 8 23 7 24 6 25 5 26 4 27 3 28 2 29 1 30
REMARK H PARENT
REMARK Flexibility Score: inf
ROOT
ATOM      1  C   UNL     1      31.418  31.380  17.304  1.00  0.00     0.000 C 
ENDROOT
BRANCH   1   2
ATOM      2  C   UNL     1      30.205  30.438  17.193  1.00  0.00     0.000 C 
BRANCH   2   3
ATOM      3  C   UNL     1      29.540  30.505  15.802  1.00  0.00     0.000 C 
BRANCH   3   4
ATOM      4  C   UNL     1      29.587  29.173  15.031  1.00  0.00     0.000 C 
BRANCH   4   5
ATOM      5  C   UNL     1      30.105  29.331  13.596  1.00  0.00     0.000 C 
BRANCH   5   6
ATOM      6  C   UNL     1      29.756  30.711  13.023  1.00  0.00     0.000 C 
BRANCH   6   7
ATOM      7  C   UNL     1      30.675  31.056  11.841  1.00  0.00     0.000 C 
BRANCH   7   8
ATOM      8  C   UNL     1      31.988  30.259  11.861  1.00  0.00     0.000 C 
BRANCH   8   9
ATOM      9  C   UNL     1      32.747  30.339  10.526  1.00  0.00     0.000 C 
BRANCH   9  10
ATOM     10  C   UNL     1      33.338  28.984  10.101  1.00  0.00     0.000 C 
BRANCH  10  11
ATOM     11  C   UNL     1      33.877  28.123  11.257  1.00  0.00     0.000 C 
BRANCH  11  12
ATOM     12  C   UNL     1      35.411  27.954  11.240  1.00  0.00     0.006 C 
BRANCH  12  13
ATOM     13  C   UNL     1      35.898  26.917  12.261  1.00  0.00     0.053 C 
BRANCH  13  14
ATOM     14  C   UNL     1      36.830  25.942  11.611  1.00  0.00     0.041 C 
ATOM     15  O   UNL     1      36.854  25.826  10.358  1.00  0.00    -0.550 OA
ATOM     16  O   UNL     1      37.717  25.212  12.388  1.00  0.00    -0.550 OA
ENDBRANCH  13  14
ENDBRANCH  12  13
ENDBRANCH  11  12
ENDBRANCH  10  11
ENDBRANCH   9  10
ENDBRANCH   8   9
ENDBRANCH   7   8
ENDBRANCH   6   7
ENDBRANCH   5   6
ENDBRANCH   4   5
ENDBRANCH   3   4
ENDBRANCH   2   3
ENDBRANCH   1   2
BRANCH   1  17
ATOM     17  C   UNL     1      31.721  32.112  15.987  1.00  0.00     0.000 C 
BRANCH  17  18
ATOM     18  C   UNL     1      32.925  31.512  15.243  1.00  0.00     0.000 C 
BRANCH  18  19
ATOM     19  C   UNL     1      33.496  30.269  15.944  1.00  0.00     0.000 C 
BRANCH  19  20
ATOM     20  C   UNL     1      33.540  29.032  15.027  1.00  0.00     0.000 C 
BRANCH  20  21
ATOM     21  C   UNL     1      33.206  27.727  15.767  1.00  0.00     0.000 C 
BRANCH  21  22
ATOM     22  C   UNL     1      33.991  26.517  15.226  1.00  0.00    -0.000 C 
BRANCH  22  23
ATOM     23  C   UNL     1      33.075  25.419  14.642  1.00  0.00    -0.000 C 
BRANCH  23  24
ATOM     24  C   UNL     1      31.957  25.947  13.720  1.00  0.00    -0.000 C 
BRANCH  24  25
ATOM     25  C   UNL     1      30.526  25.528  14.107  1.00  0.00    -0.000 C 
BRANCH  25  26
ATOM     26  C   UNL     1      30.335  25.149  15.589  1.00  0.00    -0.000 C 
BRANCH  26  27
ATOM     27  C   UNL     1      29.113  25.791  16.270  1.00  0.00    -0.000 C 
BRANCH  27  28
ATOM     28  C   UNL     1      27.761  25.331  15.687  1.00  0.00    -0.000 C 
BRANCH  28  29
ATOM     29  C   UNL     1      27.069  26.427  14.863  1.00  0.00    -0.003 C 
ATOM     30  C   UNL     1      26.100  25.824  13.852  1.00  0.00     0.004 C 
ENDBRANCH  28  29
ENDBRANCH  27  28
ENDBRANCH  26  27
ENDBRANCH  25  26
ENDBRANCH  24  25
ENDBRANCH  23  24
ENDBRANCH  22  23
ENDBRANCH  21  22
ENDBRANCH  20  21
ENDBRANCH  19  20
ENDBRANCH  18  19
ENDBRANCH  17  18
ENDBRANCH   1  17
TORSDOF 26
ENDMDL
MODEL 3
REMARK VINA RESULT:    -4.234      1.978      5.679
REMARK INTER + INTRA:         -16.917
REMARK INTER:                 -11.214
REMARK INTRA:                  -5.703
REMARK UNBOUND:                -6.249
REMARK SMILES CCCCCCCCCCCCCCCCCCCCCCCCCCCC(=O)[O-]
REMARK SMILES IDX 15 1 16 2 17 3 18 4 19 5 20 6 21 7 22 8 23 9 24 10 25 11
REMARK SMILES IDX 26 12 27 13 28 14 29 15 30 16 14 17 13 18 12 19 11 20 10 21
REMARK SMILES IDX 9 22 8 23 7 24 6 25 5 26 4 27 3 28 2 29 1 30
REMARK H PARENT
REMARK Flexibility Score: inf
ROOT
ATOM      1  C   UNL     1      30.138  30.277  17.068  1.00  0.00     0.000 C 
ENDROOT
BRANCH   1   2
ATOM      2  C   UNL     1      31.375  31.123  17.423  1.00  0.00     0.000 C 
BRANCH   2   3
ATOM      3  C   UNL     1      31.685  32.183  16.345  1.00  0.00     0.000 C 
BRANCH   3   4
ATOM      4  C   UNL     1      32.827  31.780  15.393  1.00  0.00     0.000 C 
BRANCH   4   5
ATOM      5  C   UNL     1      33.494  30.457  15.790  1.00  0.00     0.000 C 
BRANCH   5   6
ATOM      6  C   UNL     1      33.219  29.358  14.755  1.00  0.00     0.000 C 
BRANCH   6   7
ATOM      7  C   UNL     1      33.169  27.979  15.429  1.00  0.00     0.000 C 
BRANCH   7   8
ATOM      8  C   UNL     1      31.752  27.386  15.456  1.00  0.00     0.000 C 
BRANCH   8   9
ATOM      9  C   UNL     1      31.750  25.855  15.300  1.00  0.00     0.000 C 
BRANCH   9  10
ATOM     10  C   UNL     1      30.330  25.266  15.276  1.00  0.00     0.000 C 
BRANCH  10  11
ATOM     11  C   UNL     1      29.260  26.130  15.970  1.00  0.00     0.000 C 
BRANCH  11  12
ATOM     12  C   UNL     1      27.813  25.721  15.622  1.00  0.00     0.006 C 
BRANCH  12  13
ATOM     13  C   UNL     1      27.694  25.136  14.208  1.00  0.00     0.053 C 
BRANCH  13  14
ATOM     14  C   UNL     1      27.091  26.140  13.276  1.00  0.00     0.041 C 
ATOM     15  O   UNL     1      26.761  27.280  13.698  1.00  0.00    -0.550 OA
ATOM     16  O   UNL     1      26.955  25.838  11.929  1.00  0.00    -0.550 OA
ENDBRANCH  13  14
ENDBRANCH  12  13
ENDBRANCH  11  12
ENDBRANCH  10  11
ENDBRANCH   9  10
ENDBRANCH   8   9
ENDBRANCH   7   8
ENDBRANCH   6   7
ENDBRANCH   5   6
ENDBRANCH   4   5
ENDBRANCH   3   4
ENDBRANCH   2   3
ENDBRANCH   1   2
BRANCH   1  17
ATOM     17  C   UNL     1      29.446  30.752  15.781  1.00  0.00     0.000 C 
BRANCH  17  18
ATOM     18  C   UNL     1      29.174  29.600  14.800  1.00  0.00     0.000 C 
BRANCH  18  19
ATOM     19  C   UNL     1      29.024  30.081  13.348  1.00  0.00     0.000 C 
BRANCH  19  20
ATOM     20  C   UNL     1      29.963  31.252  13.005  1.00  0.00     0.000 C 
BRANCH  20  21
ATOM     21  C   UNL     1      31.104  30.846  12.058  1.00  0.00     0.000 C 
BRANCH  21  22
ATOM     22  C   UNL     1      30.628  30.639  10.607  1.00  0.00    -0.000 C 
BRANCH  22  23
ATOM     23  C   UNL     1      31.794  30.557   9.598  1.00  0.00    -0.000 C 
BRANCH  23  24
ATOM     24  C   UNL     1      33.190  30.458  10.246  1.00  0.00    -0.000 C 
BRANCH  24  25
ATOM     25  C   UNL     1      34.209  29.581   9.494  1.00  0.00    -0.000 C 
BRANCH  25  26
ATOM     26  C   UNL     1      34.443  28.184  10.103  1.00  0.00    -0.000 C 
BRANCH  26  27
ATOM     27  C   UNL     1      34.082  28.057  11.594  1.00  0.00    -0.000 C 
BRANCH  27  28
ATOM     28  C   UNL     1      33.026  26.972  11.890  1.00  0.00    -0.000 C 
BRANCH  28  29
ATOM     29  C   UNL     1      31.739  27.162  11.073  1.00  0.00    -0.003 C 
ATOM     30  C   UNL     1      30.503  26.991  11.950  1.00  0.00     0.004 C 
ENDBRANCH  28  29
ENDBRANCH  27  28
ENDBRANCH  26  27
ENDBRANCH  25  26
ENDBRANCH  24  25
ENDBRANCH  23  24
ENDBRANCH  22  23
ENDBRANCH  21  22
ENDBRANCH  20  21
ENDBRANCH  19  20
ENDBRANCH  18  19
ENDBRANCH  17  18
ENDBRANCH   1  17
TORSDOF 26
ENDMDL
MODEL 4
REMARK VINA RESULT:    -4.230      2.376      5.779
REMARK INTER + INTRA:         -16.908
REMARK INTER:                 -11.418
REMARK INTRA:                  -5.490
REMARK UNBOUND:                -6.249
REMARK SMILES CCCCCCCCCCCCCCCCCCCCCCCCCCCC(=O)[O-]
REMARK SMILES IDX 15 1 16 2 17 3 18 4 19 5 20 6 21 7 22 8 23 9 24 10 25 11
REMARK SMILES IDX 26 12 27 13 28 14 29 15 30 16 14 17 13 18 12 19 11 20 10 21
REMARK SMILES IDX 9 22 8 23 7 24 6 25 5 26 4 27 3 28 2 29 1 30
REMARK H PARENT
REMARK Flexibility Score: inf
ROOT
ATOM      1  C   UNL     1      32.891  31.579  15.353  1.00  0.00     0.000 C 
ENDROOT
BRANCH   1   2
ATOM      2  C   UNL     1      33.467  30.246  15.866  1.00  0.00     0.000 C 
BRANCH   2   3
ATOM      3  C   UNL     1      33.270  29.098  14.853  1.00  0.00     0.000 C 
BRANCH   3   4
ATOM      4  C   UNL     1      32.726  27.804  15.485  1.00  0.00     0.000 C 
BRANCH   4   5
ATOM      5  C   UNL     1      31.811  27.016  14.539  1.00  0.00     0.000 C 
BRANCH   5   6
ATOM      6  C   UNL     1      31.010  25.948  15.294  1.00  0.00     0.000 C 
BRANCH   6   7
ATOM      7  C   UNL     1      29.822  26.582  16.034  1.00  0.00     0.000 C 
BRANCH   7   8
ATOM      8  C   UNL     1      28.491  25.883  15.722  1.00  0.00     0.000 C 
BRANCH   8   9
ATOM      9  C   UNL     1      27.563  26.744  14.846  1.00  0.00     0.000 C 
BRANCH   9  10
ATOM     10  C   UNL     1      27.448  26.213  13.408  1.00  0.00     0.000 C 
BRANCH  10  11
ATOM     11  C   UNL     1      28.406  26.870  12.398  1.00  0.00     0.000 C 
BRANCH  11  12
ATOM     12  C   UNL     1      27.697  27.434  11.149  1.00  0.00     0.006 C 
BRANCH  12  13
ATOM     13  C   UNL     1      26.466  28.279  11.505  1.00  0.00     0.053 C 
BRANCH  13  14
ATOM     14  C   UNL     1      26.390  29.488  10.627  1.00  0.00     0.041 C 
ATOM     15  O   UNL     1      27.395  29.854   9.963  1.00  0.00    -0.550 OA
ATOM     16  O   UNL     1      25.189  30.169  10.492  1.00  0.00    -0.550 OA
ENDBRANCH  13  14
ENDBRANCH  12  13
ENDBRANCH  11  12
ENDBRANCH  10  11
ENDBRANCH   9  10
ENDBRANCH   8   9
ENDBRANCH   7   8
ENDBRANCH   6   7
ENDBRANCH   5   6
ENDBRANCH   4   5
ENDBRANCH   3   4
ENDBRANCH   2   3
ENDBRANCH   1   2
BRANCH   1  17
ATOM     17  C   UNL     1      31.771  32.126  16.252  1.00  0.00     0.000 C 
BRANCH  17  18
ATOM     18  C   UNL     1      31.360  31.131  17.349  1.00  0.00     0.000 C 
BRANCH  18  19
ATOM     19  C   UNL     1      30.134  30.290  16.959  1.00  0.00     0.000 C 
BRANCH  19  20
ATOM     20  C   UNL     1      29.427  30.814  15.695  1.00  0.00     0.000 C 
BRANCH  20  21
ATOM     21  C   UNL     1      29.568  29.865  14.494  1.00  0.00     0.000 C 
BRANCH  21  22
ATOM     22  C   UNL     1      28.892  30.409  13.221  1.00  0.00    -0.000 C 
BRANCH  22  23
ATOM     23  C   UNL     1      29.876  31.142  12.284  1.00  0.00    -0.000 C 
BRANCH  23  24
ATOM     24  C   UNL     1      31.256  30.467  12.156  1.00  0.00    -0.000 C 
BRANCH  24  25
ATOM     25  C   UNL     1      31.243  29.030  11.600  1.00  0.00    -0.000 C 
BRANCH  25  26
ATOM     26  C   UNL     1      32.380  28.702  10.613  1.00  0.00    -0.000 C 
BRANCH  26  27
ATOM     27  C   UNL     1      33.696  29.459  10.863  1.00  0.00    -0.000 C 
BRANCH  27  28
ATOM     28  C   UNL     1      34.901  28.538  11.150  1.00  0.00    -0.000 C 
BRANCH  28  29
ATOM     29  C   UNL     1      34.488  27.215  11.812  1.00  0.00    -0.003 C 
ATOM     30  C   UNL     1      35.404  26.880  12.984  1.00  0.00     0.004 C 
ENDBRANCH  28  29
ENDBRANCH  27  28
ENDBRANCH  26  27
ENDBRANCH  25  26
ENDBRANCH  24  25
ENDBRANCH  23  24
ENDBRANCH  22  23
ENDBRANCH  21  22
ENDBRANCH  20  21
ENDBRANCH  19  20
ENDBRANCH  18  19
ENDBRANCH  17  18
ENDBRANCH   1  17
TORSDOF 26
ENDMDL
MODEL 5
REMARK VINA RESULT:    -4.189      1.151      2.320
REMARK INTER + INTRA:         -16.806
REMARK INTER:                 -11.126
REMARK INTRA:                  -5.681
REMARK UNBOUND:                -6.249
REMARK SMILES CCCCCCCCCCCCCCCCCCCCCCCCCCCC(=O)[O-]
REMARK SMILES IDX 15 1 16 2 17 3 18 4 19 5 20 6 21 7 22 8 23 9 24 10 25 11
REMARK SMILES IDX 26 12 27 13 28 14 29 15 30 16 14 17 13 18 12 19 11 20 10 21
REMARK SMILES IDX 9 22 8 23 7 24 6 25 5 26 4 27 3 28 2 29 1 30
REMARK H PARENT
REMARK Flexibility Score: inf
ROOT
ATOM      1  C   UNL     1      33.546  30.332  15.759  1.00  0.00     0.000 C 
ENDROOT
BRANCH   1   2
ATOM      2  C   UNL     1      32.886  31.633  15.269  1.00  0.00     0.000 C 
BRANCH   2   3
ATOM      3  C   UNL     1      31.797  32.137  16.241  1.00  0.00     0.000 C 
BRANCH   3   4
ATOM      4  C   UNL     1      31.376  31.092  17.291  1.00  0.00     0.000 C 
BRANCH   4   5
ATOM      5  C   UNL     1      30.071  30.372  16.926  1.00  0.00     0.000 C 
BRANCH   5   6
ATOM      6  C   UNL     1      29.415  30.995  15.686  1.00  0.00     0.000 C 
BRANCH   6   7
ATOM      7  C   UNL     1      29.130  29.921  14.626  1.00  0.00     0.000 C 
BRANCH   7   8
ATOM      8  C   UNL     1      28.899  30.516  13.229  1.00  0.00     0.000 C 
BRANCH   8   9
ATOM      9  C   UNL     1      30.170  31.157  12.643  1.00  0.00     0.000 C 
BRANCH   9  10
ATOM     10  C   UNL     1      31.189  30.113  12.161  1.00  0.00     0.000 C 
BRANCH  10  11
ATOM     11  C   UNL     1      32.318  30.673  11.275  1.00  0.00     0.000 C 
BRANCH  11  12
ATOM     12  C   UNL     1      33.124  29.583  10.538  1.00  0.00     0.006 C 
BRANCH  12  13
ATOM     13  C   UNL     1      32.892  28.184  11.126  1.00  0.00     0.053 C 
BRANCH  13  14
ATOM     14  C   UNL     1      34.185  27.590  11.588  1.00  0.00     0.041 C 
ATOM     15  O   UNL     1      35.243  28.272  11.559  1.00  0.00    -0.550 OA
ATOM     16  O   UNL     1      34.207  26.306  12.111  1.00  0.00    -0.550 OA
ENDBRANCH  13  14
ENDBRANCH  12  13
ENDBRANCH  11  12
ENDBRANCH  10  11
ENDBRANCH   9  10
ENDBRANCH   8   9
ENDBRANCH   7   8
ENDBRANCH   6   7
ENDBRANCH   5   6
ENDBRANCH   4   5
ENDBRANCH   3   4
ENDBRANCH   2   3
ENDBRANCH   1   2
BRANCH   1  17
ATOM     17  C   UNL     1      33.284  29.144  14.821  1.00  0.00     0.000 C 
BRANCH  17  18
ATOM     18  C   UNL     1      33.807  27.816  15.392  1.00  0.00     0.000 C 
BRANCH  18  19
ATOM     19  C   UNL     1      32.761  26.692  15.334  1.00  0.00     0.000 C 
BRANCH  19  20
ATOM     20  C   UNL     1      31.397  27.171  14.803  1.00  0.00     0.000 C 
BRANCH  20  21
ATOM     21  C   UNL     1      30.225  26.762  15.710  1.00  0.00     0.000 C 
BRANCH  21  22
ATOM     22  C   UNL     1      30.003  25.237  15.746  1.00  0.00    -0.000 C 
BRANCH  22  23
ATOM     23  C   UNL     1      28.523  24.841  15.557  1.00  0.00    -0.000 C 
BRANCH  23  24
ATOM     24  C   UNL     1      27.530  26.015  15.671  1.00  0.00    -0.000 C 
BRANCH  24  25
ATOM     25  C   UNL     1      26.643  26.256  14.435  1.00  0.00    -0.000 C 
BRANCH  25  26
ATOM     26  C   UNL     1      27.287  27.113  13.327  1.00  0.00    -0.000 C 
BRANCH  26  27
ATOM     27  C   UNL     1      28.156  26.332  12.324  1.00  0.00    -0.000 C 
BRANCH  27  28
ATOM     28  C   UNL     1      29.117  27.221  11.508  1.00  0.00    -0.000 C 
BRANCH  28  29
ATOM     29  C   UNL     1      28.531  27.632  10.149  1.00  0.00    -0.003 C 
ATOM     30  C   UNL     1      29.378  28.718   9.493  1.00  0.00     0.004 C 
ENDBRANCH  28  29
ENDBRANCH  27  28
ENDBRANCH  26  27
ENDBRANCH  25  26
ENDBRANCH  24  25
ENDBRANCH  23  24
ENDBRANCH  22  23
ENDBRANCH  21  22
ENDBRANCH  20  21
ENDBRANCH  19  20
ENDBRANCH  18  19
ENDBRANCH  17  18
ENDBRANCH   1  17
TORSDOF 26
ENDMDL
MODEL 6
REMARK VINA RESULT:    -4.184      1.945      5.070
REMARK INTER + INTRA:         -16.793
REMARK INTER:                 -11.066
REMARK INTRA:                  -5.727
REMARK UNBOUND:                -6.249
REMARK SMILES CCCCCCCCCCCCCCCCCCCCCCCCCCCC(=O)[O-]
REMARK SMILES IDX 15 1 16 2 17 3 18 4 19 5 20 6 21 7 22 8 23 9 24 10 25 11
REMARK SMILES IDX 26 12 27 13 28 14 29 15 30 16 14 17 13 18 12 19 11 20 10 21
REMARK SMILES IDX 9 22 8 23 7 24 6 25 5 26 4 27 3 28 2 29 1 30
REMARK H PARENT
REMARK Flexibility Score: inf
ROOT
ATOM      1  C   UNL     1      29.529  30.639  15.790  1.00  0.00     0.000 C 
ENDROOT
BRANCH   1   2
ATOM      2  C   UNL     1      30.224  30.432  17.148  1.00  0.00     0.000 C 
BRANCH   2   3
ATOM      3  C   UNL     1      31.455  31.349  17.318  1.00  0.00     0.000 C 
BRANCH   3   4
ATOM      4  C   UNL     1      31.782  32.182  16.064  1.00  0.00     0.000 C 
BRANCH   4   5
ATOM      5  C   UNL     1      32.917  31.579  15.227  1.00  0.00     0.000 C 
BRANCH   5   6
ATOM      6  C   UNL     1      33.414  30.256  15.826  1.00  0.00     0.000 C 
BRANCH   6   7
ATOM      7  C   UNL     1      33.351  29.131  14.783  1.00  0.00     0.000 C 
BRANCH   7   8
ATOM      8  C   UNL     1      34.304  27.971  15.107  1.00  0.00     0.000 C 
BRANCH   8   9
ATOM      9  C   UNL     1      33.607  26.828  15.865  1.00  0.00     0.000 C 
BRANCH   9  10
ATOM     10  C   UNL     1      32.103  26.745  15.557  1.00  0.00     0.000 C 
BRANCH  10  11
ATOM     11  C   UNL     1      31.649  25.428  14.899  1.00  0.00     0.000 C 
BRANCH  11  12
ATOM     12  C   UNL     1      30.145  25.134  15.078  1.00  0.00     0.006 C 
BRANCH  12  13
ATOM     13  C   UNL     1      29.493  26.037  16.134  1.00  0.00     0.053 C 
BRANCH  13  14
ATOM     14  C   UNL     1      28.034  25.728  16.256  1.00  0.00     0.041 C 
ATOM     15  O   UNL     1      27.603  25.073  17.242  1.00  0.00    -0.550 OA
ATOM     16  O   UNL     1      27.142  26.221  15.314  1.00  0.00    -0.550 OA
ENDBRANCH  13  14
ENDBRANCH  12  13
ENDBRANCH  11  12
ENDBRANCH  10  11
ENDBRANCH   9  10
ENDBRANCH   8   9
ENDBRANCH   7   8
ENDBRANCH   6   7
ENDBRANCH   5   6
ENDBRANCH   4   5
ENDBRANCH   3   4
ENDBRANCH   2   3
ENDBRANCH   1   2
BRANCH   1  17
ATOM     17  C   UNL     1      29.387  29.333  14.992  1.00  0.00     0.000 C 
BRANCH  17  18
ATOM     18  C   UNL     1      30.012  29.430  13.591  1.00  0.00     0.000 C 
BRANCH  18  19
ATOM     19  C   UNL     1      29.461  30.611  12.775  1.00  0.00     0.000 C 
BRANCH  19  20
ATOM     20  C   UNL     1      30.328  30.946  11.548  1.00  0.00     0.000 C 
BRANCH  20  21
ATOM     21  C   UNL     1      31.833  30.939  11.859  1.00  0.00     0.000 C 
BRANCH  21  22
ATOM     22  C   UNL     1      32.705  30.918  10.589  1.00  0.00    -0.000 C 
BRANCH  22  23
ATOM     23  C   UNL     1      32.950  29.492  10.051  1.00  0.00    -0.000 C 
BRANCH  23  24
ATOM     24  C   UNL     1      33.916  28.646  10.905  1.00  0.00    -0.000 C 
BRANCH  24  25
ATOM     25  C   UNL     1      33.421  27.233  11.264  1.00  0.00    -0.000 C 
BRANCH  25  26
ATOM     26  C   UNL     1      32.026  27.177  11.919  1.00  0.00    -0.000 C 
BRANCH  26  27
ATOM     27  C   UNL     1      30.984  26.340  11.156  1.00  0.00    -0.000 C 
BRANCH  27  28
ATOM     28  C   UNL     1      30.061  27.174  10.243  1.00  0.00    -0.000 C 
BRANCH  28  29
ATOM     29  C   UNL     1      28.705  27.480  10.895  1.00  0.00    -0.003 C 
ATOM     30  C   UNL     1      28.398  26.488  12.012  1.00  0.00     0.004 C 
ENDBRANCH  28  29
ENDBRANCH  27  28
ENDBRANCH  26  27
ENDBRANCH  25  26
ENDBRANCH  24  25
ENDBRANCH  23  24
ENDBRANCH  22  23
ENDBRANCH  21  22
ENDBRANCH  20  21
ENDBRANCH  19  20
ENDBRANCH  18  19
ENDBRANCH  17  18
ENDBRANCH   1  17
TORSDOF 26
ENDMDL
MODEL 7
REMARK VINA RESULT:    -4.170      2.105      5.367
REMARK INTER + INTRA:         -16.758
REMARK INTER:                 -11.151
REMARK INTRA:                  -5.608
REMARK UNBOUND:                -6.249
REMARK SMILES CCCCCCCCCCCCCCCCCCCCCCCCCCCC(=O)[O-]
REMARK SMILES IDX 15 1 16 2 17 3 18 4 19 5 20 6 21 7 22 8 23 9 24 10 25 11
REMARK SMILES IDX 26 12 27 13 28 14 29 15 30 16 14 17 13 18 12 19 11 20 10 21
REMARK SMILES IDX 9 22 8 23 7 24 6 25 5 26 4 27 3 28 2 29 1 30
REMARK H PARENT
REMARK Flexibility Score: inf
ROOT
ATOM      1  C   UNL     1      33.278  27.176  11.873  1.00  0.00     0.000 C 
ENDROOT
BRANCH   1   2
ATOM      2  C   UNL     1      33.726  27.454  10.426  1.00  0.00     0.000 C 
BRANCH   2   3
ATOM      3  C   UNL     1      34.204  28.909  10.233  1.00  0.00     0.000 C 
BRANCH   3   4
ATOM      4  C   UNL     1      33.544  29.621   9.037  1.00  0.00     0.000 C 
BRANCH   4   5
ATOM      5  C   UNL     1      32.480  30.641   9.463  1.00  0.00     0.000 C 
BRANCH   5   6
ATOM      6  C   UNL     1      32.570  30.951  10.963  1.00  0.00     0.000 C 
BRANCH   6   7
ATOM      7  C   UNL     1      31.230  30.662  11.657  1.00  0.00     0.000 C 
BRANCH   7   8
ATOM      8  C   UNL     1      30.229  29.951  10.735  1.00  0.00     0.000 C 
BRANCH   8   9
ATOM      9  C   UNL     1      29.881  28.533  11.222  1.00  0.00     0.000 C 
BRANCH   9  10
ATOM     10  C   UNL     1      28.396  28.188  11.022  1.00  0.00     0.000 C 
BRANCH  10  11
ATOM     11  C   UNL     1      27.423  28.977  11.918  1.00  0.00     0.000 C 
BRANCH  11  12
ATOM     12  C   UNL     1      26.897  28.168  13.122  1.00  0.00     0.006 C 
BRANCH  12  13
ATOM     13  C   UNL     1      27.060  26.655  12.927  1.00  0.00     0.053 C 
BRANCH  13  14
ATOM     14  C   UNL     1      26.516  25.914  14.109  1.00  0.00     0.041 C 
ATOM     15  O   UNL     1      25.726  24.948  13.945  1.00  0.00    -0.550 OA
ATOM     16  O   UNL     1      26.936  26.251  15.387  1.00  0.00    -0.550 OA
ENDBRANCH  13  14
ENDBRANCH  12  13
ENDBRANCH  11  12
ENDBRANCH  10  11
ENDBRANCH   9  10
ENDBRANCH   8   9
ENDBRANCH   7   8
ENDBRANCH   6   7
ENDBRANCH   5   6
ENDBRANCH   4   5
ENDBRANCH   3   4
ENDBRANCH   2   3
ENDBRANCH   1   2
BRANCH   1  17
ATOM     17  C   UNL     1      34.145  27.907  12.911  1.00  0.00     0.000 C 
BRANCH  17  18
ATOM     18  C   UNL     1      33.306  28.726  13.905  1.00  0.00     0.000 C 
BRANCH  18  19
ATOM     19  C   UNL     1      33.782  28.565  15.358  1.00  0.00     0.000 C 
BRANCH  19  20
ATOM     20  C   UNL     1      33.502  29.809  16.221  1.00  0.00     0.000 C 
BRANCH  20  21
ATOM     21  C   UNL     1      33.117  31.041  15.386  1.00  0.00     0.000 C 
BRANCH  21  22
ATOM     22  C   UNL     1      32.117  31.963  16.109  1.00  0.00    -0.000 C 
BRANCH  22  23
ATOM     23  C   UNL     1      31.501  31.313  17.366  1.00  0.00    -0.000 C 
BRANCH  23  24
ATOM     24  C   UNL     1      30.168  30.579  17.115  1.00  0.00    -0.000 C 
BRANCH  24  25
ATOM     25  C   UNL     1      29.583  30.733  15.699  1.00  0.00    -0.000 C 
BRANCH  25  26
ATOM     26  C   UNL     1      29.790  29.519  14.771  1.00  0.00    -0.000 C 
BRANCH  26  27
ATOM     27  C   UNL     1      29.936  28.167  15.494  1.00  0.00    -0.000 C 
BRANCH  27  28
ATOM     28  C   UNL     1      30.267  26.990  14.553  1.00  0.00    -0.000 C 
BRANCH  28  29
ATOM     29  C   UNL     1      30.804  25.765  15.307  1.00  0.00    -0.003 C 
ATOM     30  C   UNL     1      30.382  24.470  14.620  1.00  0.00     0.004 C 
ENDBRANCH  28  29
ENDBRANCH  27  28
ENDBRANCH  26  27
ENDBRANCH  25  26
ENDBRANCH  24  25
ENDBRANCH  23  24
ENDBRANCH  22  23
ENDBRANCH  21  22
ENDBRANCH  20  21
ENDBRANCH  19  20
ENDBRANCH  18  19
ENDBRANCH  17  18
ENDBRANCH   1  17
TORSDOF 26
ENDMDL
MODEL 8
REMARK VINA RESULT:    -4.168      1.601      5.243
REMARK INTER + INTRA:         -16.753
REMARK INTER:                 -11.043
REMARK INTRA:                  -5.710
REMARK UNBOUND:                -6.249
REMARK SMILES CCCCCCCCCCCCCCCCCCCCCCCCCCCC(=O)[O-]
REMARK SMILES IDX 15 1 16 2 17 3 18 4 19 5 20 6 21 7 22 8 23 9 24 10 25 11
REMARK SMILES IDX 26 12 27 13 28 14 29 15 30 16 14 17 13 18 12 19 11 20 10 21
REMARK SMILES IDX 9 22 8 23 7 24 6 25 5 26 4 27 3 28 2 29 1 30
REMARK H PARENT
REMARK Flexibility Score: inf
ROOT
ATOM      1  C   UNL     1      30.488  27.002  14.771  1.00  0.00     0.000 C 
ENDROOT
BRANCH   1   2
ATOM      2  C   UNL     1      30.256  25.630  15.430  1.00  0.00     0.000 C 
BRANCH   2   3
ATOM      3  C   UNL     1      28.947  24.966  14.950  1.00  0.00     0.000 C 
BRANCH   3   4
ATOM      4  C   UNL     1      27.702  25.417  15.736  1.00  0.00     0.000 C 
BRANCH   4   5
ATOM      5  C   UNL     1      26.881  26.480  14.995  1.00  0.00     0.000 C 
BRANCH   5   6
ATOM      6  C   UNL     1      26.599  26.061  13.547  1.00  0.00     0.000 C 
BRANCH   6   7
ATOM      7  C   UNL     1      26.147  27.269  12.711  1.00  0.00     0.000 C 
BRANCH   7   8
ATOM      8  C   UNL     1      27.258  28.315  12.535  1.00  0.00     0.000 C 
BRANCH   8   9
ATOM      9  C   UNL     1      28.487  27.752  11.800  1.00  0.00     0.000 C 
BRANCH   9  10
ATOM     10  C   UNL     1      29.225  28.821  10.979  1.00  0.00     0.000 C 
BRANCH  10  11
ATOM     11  C   UNL     1      29.201  30.235  11.589  1.00  0.00     0.000 C 
BRANCH  11  12
ATOM     12  C   UNL     1      30.605  30.832  11.821  1.00  0.00     0.006 C 
BRANCH  12  13
ATOM     13  C   UNL     1      31.675  29.751  12.029  1.00  0.00     0.053 C 
BRANCH  13  14
ATOM     14  C   UNL     1      32.789  29.922  11.045  1.00  0.00     0.041 C 
ATOM     15  O   UNL     1      32.852  30.957  10.331  1.00  0.00    -0.550 OA
ATOM     16  O   UNL     1      33.793  28.968  10.966  1.00  0.00    -0.550 OA
ENDBRANCH  13  14
ENDBRANCH  12  13
ENDBRANCH  11  12
ENDBRANCH  10  11
ENDBRANCH   9  10
ENDBRANCH   8   9
ENDBRANCH   7   8
ENDBRANCH   6   7
ENDBRANCH   5   6
ENDBRANCH   4   5
ENDBRANCH   3   4
ENDBRANCH   2   3
ENDBRANCH   1   2
BRANCH   1  17
ATOM     17  C   UNL     1      30.209  28.173  15.726  1.00  0.00     0.000 C 
BRANCH  17  18
ATOM     18  C   UNL     1      29.442  29.318  15.044  1.00  0.00     0.000 C 
BRANCH  18  19
ATOM     19  C   UNL     1      29.502  30.630  15.842  1.00  0.00     0.000 C 
BRANCH  19  20
ATOM     20  C   UNL     1      30.220  30.474  17.196  1.00  0.00     0.000 C 
BRANCH  20  21
ATOM     21  C   UNL     1      31.471  31.359  17.314  1.00  0.00     0.000 C 
BRANCH  21  22
ATOM     22  C   UNL     1      31.791  32.117  16.010  1.00  0.00    -0.000 C 
BRANCH  22  23
ATOM     23  C   UNL     1      32.899  31.438  15.176  1.00  0.00    -0.000 C 
BRANCH  23  24
ATOM     24  C   UNL     1      33.573  30.237  15.871  1.00  0.00    -0.000 C 
BRANCH  24  25
ATOM     25  C   UNL     1      33.609  28.933  15.052  1.00  0.00    -0.000 C 
BRANCH  25  26
ATOM     26  C   UNL     1      33.944  27.664  15.861  1.00  0.00    -0.000 C 
BRANCH  26  27
ATOM     27  C   UNL     1      33.975  26.361  15.041  1.00  0.00    -0.000 C 
BRANCH  27  28
ATOM     28  C   UNL     1      33.993  26.586  13.515  1.00  0.00    -0.000 C 
BRANCH  28  29
ATOM     29  C   UNL     1      33.325  25.439  12.741  1.00  0.00    -0.003 C 
ATOM     30  C   UNL     1      32.226  25.965  11.823  1.00  0.00     0.004 C 
ENDBRANCH  28  29
ENDBRANCH  27  28
ENDBRANCH  26  27
ENDBRANCH  25  26
ENDBRANCH  24  25
ENDBRANCH  23  24
ENDBRANCH  22  23
ENDBRANCH  21  22
ENDBRANCH  20  21
ENDBRANCH  19  20
ENDBRANCH  18  19
ENDBRANCH  17  18
ENDBRANCH   1  17
TORSDOF 26
ENDMDL
MODEL 9
REMARK VINA RESULT:    -4.141      1.311      3.252
REMARK INTER + INTRA:         -16.685
REMARK INTER:                 -10.888
REMARK INTRA:                  -5.797
REMARK UNBOUND:                -6.249
REMARK SMILES CCCCCCCCCCCCCCCCCCCCCCCCCCCC(=O)[O-]
REMARK SMILES IDX 15 1 16 2 17 3 18 4 19 5 20 6 21 7 22 8 23 9 24 10 25 11
REMARK SMILES IDX 26 12 27 13 28 14 29 15 30 16 14 17 13 18 12 19 11 20 10 21
REMARK SMILES IDX 9 22 8 23 7 24 6 25 5 26 4 27 3 28 2 29 1 30
REMARK H PARENT
REMARK Flexibility Score: inf
ROOT
ATOM      1  C   UNL     1      33.602  30.235  16.079  1.00  0.00     0.000 C 
ENDROOT
BRANCH   1   2
ATOM      2  C   UNL     1      32.903  31.426  15.398  1.00  0.00     0.000 C 
BRANCH   2   3
ATOM      3  C   UNL     1      31.807  32.047  16.290  1.00  0.00     0.000 C 
BRANCH   3   4
ATOM      4  C   UNL     1      31.108  31.027  17.208  1.00  0.00     0.000 C 
BRANCH   4   5
ATOM      5  C   UNL     1      30.220  30.041  16.438  1.00  0.00     0.000 C 
BRANCH   5   6
ATOM      6  C   UNL     1      29.246  30.774  15.506  1.00  0.00     0.000 C 
BRANCH   6   7
ATOM      7  C   UNL     1      29.289  30.171  14.094  1.00  0.00     0.000 C 
BRANCH   7   8
ATOM      8  C   UNL     1      29.543  31.227  13.008  1.00  0.00     0.000 C 
BRANCH   8   9
ATOM      9  C   UNL     1      30.309  30.660  11.800  1.00  0.00     0.000 C 
BRANCH   9  10
ATOM     10  C   UNL     1      31.829  30.848  11.923  1.00  0.00     0.000 C 
BRANCH  10  11
ATOM     11  C   UNL     1      32.618  30.608  10.621  1.00  0.00     0.000 C 
BRANCH  11  12
ATOM     12  C   UNL     1      33.066  29.145  10.430  1.00  0.00     0.006 C 
BRANCH  12  13
ATOM     13  C   UNL     1      34.322  28.805  11.245  1.00  0.00     0.053 C 
BRANCH  13  14
ATOM     14  C   UNL     1      34.969  27.564  10.716  1.00  0.00     0.041 C 
ATOM     15  O   UNL     1      35.012  27.350   9.476  1.00  0.00    -0.550 OA
ATOM     16  O   UNL     1      35.582  26.678  11.589  1.00  0.00    -0.550 OA
ENDBRANCH  13  14
ENDBRANCH  12  13
ENDBRANCH  11  12
ENDBRANCH  10  11
ENDBRANCH   9  10
ENDBRANCH   8   9
ENDBRANCH   7   8
ENDBRANCH   6   7
ENDBRANCH   5   6
ENDBRANCH   4   5
ENDBRANCH   3   4
ENDBRANCH   2   3
ENDBRANCH   1   2
BRANCH   1  17
ATOM     17  C   UNL     1      33.738  29.018  15.151  1.00  0.00     0.000 C 
BRANCH  17  18
ATOM     18  C   UNL     1      33.223  27.723  15.801  1.00  0.00     0.000 C 
BRANCH  18  19
ATOM     19  C   UNL     1      32.580  26.765  14.785  1.00  0.00     0.000 C 
BRANCH  19  20
ATOM     20  C   UNL     1      31.924  27.500  13.602  1.00  0.00     0.000 C 
BRANCH  20  21
ATOM     21  C   UNL     1      31.530  26.555  12.455  1.00  0.00     0.000 C 
BRANCH  21  22
ATOM     22  C   UNL     1      30.203  26.955  11.781  1.00  0.00    -0.000 C 
BRANCH  22  23
ATOM     23  C   UNL     1      29.218  25.774  11.646  1.00  0.00    -0.000 C 
BRANCH  23  24
ATOM     24  C   UNL     1      27.733  26.186  11.599  1.00  0.00    -0.000 C 
BRANCH  24  25
ATOM     25  C   UNL     1      27.406  27.560  12.215  1.00  0.00    -0.000 C 
BRANCH  25  26
ATOM     26  C   UNL     1      26.691  27.509  13.580  1.00  0.00    -0.000 C 
BRANCH  26  27
ATOM     27  C   UNL     1      27.265  26.485  14.576  1.00  0.00    -0.000 C 
BRANCH  27  28
ATOM     28  C   UNL     1      28.622  26.899  15.183  1.00  0.00    -0.000 C 
BRANCH  28  29
ATOM     29  C   UNL     1      29.252  25.787  16.034  1.00  0.00    -0.003 C 
ATOM     30  C   UNL     1      29.553  24.553  15.189  1.00  0.00     0.004 C 
ENDBRANCH  28  29
ENDBRANCH  27  28
ENDBRANCH  26  27
ENDBRANCH  25  26
ENDBRANCH  24  25
ENDBRANCH  23  24
ENDBRANCH  22  23
ENDBRANCH  21  22
ENDBRANCH  20  21
ENDBRANCH  19  20
ENDBRANCH  18  19
ENDBRANCH  17  18
ENDBRANCH   1  17
TORSDOF 26
ENDMDL
