MODEL 1
REMARK VINA RESULT:    -4.687      0.000      0.000
REMARK INTER + INTRA:         -15.107
REMARK INTER:                 -11.810
REMARK INTRA:                  -3.297
REMARK UNBOUND:                -3.297
REMARK SMILES CCCCCCCCCCCCCCCCCCCCCCCCCCCC(=O)[O-]
REMARK SMILES IDX 15 1 16 2 17 3 18 4 19 5 20 6 21 7 22 8 23 9 24 10 25 11
REMARK SMILES IDX 26 12 27 13 28 14 29 15 30 16 14 17 13 18 12 19 11 20 10 21
REMARK SMILES IDX 9 22 8 23 7 24 6 25 5 26 4 27 3 28 2 29 1 30
REMARK H PARENT
REMARK Flexibility Score: inf
ROOT
ATOM      1  C   UNL     1      12.425   5.564  52.875  1.00  0.00     0.000 C 
ENDROOT
BRANCH   1   2
ATOM      2  C   UNL     1      12.261   4.047  53.060  1.00  0.00     0.000 C 
BRANCH   2   3
ATOM      3  C   UNL     1      10.782   3.666  53.205  1.00  0.00     0.000 C 
BRANCH   3   4
ATOM      4  C   UNL     1      10.508   3.010  54.566  1.00  0.00     0.000 C 
BRANCH   4   5
ATOM      5  C   UNL     1       9.735   3.930  55.531  1.00  0.00     0.000 C 
BRANCH   5   6
ATOM      6  C   UNL     1      10.577   4.543  56.665  1.00  0.00     0.000 C 
BRANCH   6   7
ATOM      7  C   UNL     1      11.687   3.634  57.227  1.00  0.00     0.000 C 
BRANCH   7   8
ATOM      8  C   UNL     1      13.113   4.174  56.996  1.00  0.00     0.000 C 
BRANCH   8   9
ATOM      9  C   UNL     1      13.816   3.510  55.802  1.00  0.00     0.000 C 
BRANCH   9  10
ATOM     10  C   UNL     1      15.335   3.719  55.879  1.00  0.00     0.000 C 
BRANCH  10  11
ATOM     11  C   UNL     1      16.126   2.613  55.160  1.00  0.00     0.000 C 
BRANCH  11  12
ATOM     12  C   UNL     1      17.059   1.844  56.108  1.00  0.00     0.006 C 
BRANCH  12  13
ATOM     13  C   UNL     1      16.451   0.492  56.500  1.00  0.00     0.053 C 
BRANCH  13  14
ATOM     14  C   UNL     1      15.765   0.568  57.830  1.00  0.00     0.041 C 
ATOM     15  O   UNL     1      16.360   0.188  58.875  1.00  0.00    -0.550 OA
ATOM     16  O   UNL     1      14.480   1.087  57.923  1.00  0.00    -0.550 OA
ENDBRANCH  13  14
ENDBRANCH  12  13
ENDBRANCH  11  12
ENDBRANCH  10  11
ENDBRANCH   9  10
ENDBRANCH   8   9
ENDBRANCH   7   8
ENDBRANCH   6   7
ENDBRANCH   5   6
ENDBRANCH   4   5
ENDBRANCH   3   4
ENDBRANCH   2   3
ENDBRANCH   1   2
BRANCH   1  17
ATOM     17  C   UNL     1      12.204   6.355  54.176  1.00  0.00     0.000 C 
BRANCH  17  18
ATOM     18  C   UNL     1      11.575   7.750  53.990  1.00  0.00     0.000 C 
BRANCH  18  19
ATOM     19  C   UNL     1      10.811   8.295  55.214  1.00  0.00     0.000 C 
BRANCH  19  20
ATOM     20  C   UNL     1      10.421   9.783  55.136  1.00  0.00     0.000 C 
BRANCH  20  21
ATOM     21  C   UNL     1       8.934  10.031  55.440  1.00  0.00     0.000 C 
BRANCH  21  22
ATOM     22  C   UNL     1       8.066   8.769  55.262  1.00  0.00    -0.000 C 
BRANCH  22  23
ATOM     23  C   UNL     1       6.954   8.877  54.201  1.00  0.00    -0.000 C 
BRANCH  23  24
ATOM     24  C   UNL     1       7.167  10.045  53.223  1.00  0.00    -0.000 C 
BRANCH  24  25
ATOM     25  C   UNL     1       7.476   9.570  51.793  1.00  0.00    -0.000 C 
BRANCH  25  26
ATOM     26  C   UNL     1       8.436   8.372  51.752  1.00  0.00    -0.000 C 
BRANCH  26  27
ATOM     27  C   UNL     1       9.497   8.557  50.655  1.00  0.00    -0.000 C 
BRANCH  27  28
ATOM     28  C   UNL     1       9.566  10.008  50.138  1.00  0.00    -0.000 C 
BRANCH  28  29
ATOM     29  C   UNL     1      10.029  10.125  48.676  1.00  0.00    -0.003 C 
ATOM     30  C   UNL     1      10.543   8.808  48.101  1.00  0.00     0.004 C 
ENDBRANCH  28  29
ENDBRANCH  27  28
ENDBRANCH  26  27
ENDBRANCH  25  26
ENDBRANCH  24  25
ENDBRANCH  23  24
ENDBRANCH  22  23
ENDBRANCH  21  22
ENDBRANCH  20  21
ENDBRANCH  19  20
ENDBRANCH  18  19
ENDBRANCH  17  18
ENDBRANCH   1  17
TORSDOF 26
ENDMDL
MODEL 2
REMARK VINA RESULT:    -4.604      2.526      6.137
REMARK INTER + INTRA:         -14.897
REMARK INTER:                 -11.520
REMARK INTRA:                  -3.377
REMARK UNBOUND:                -3.297
REMARK SMILES CCCCCCCCCCCCCCCCCCCCCCCCCCCC(=O)[O-]
REMARK SMILES IDX 15 1 16 2 17 3 18 4 19 5 20 6 21 7 22 8 23 9 24 10 25 11
REMARK SMILES IDX 26 12 27 13 28 14 29 15 30 16 14 17 13 18 12 19 11 20 10 21
REMARK SMILES IDX 9 22 8 23 7 24 6 25 5 26 4 27 3 28 2 29 1 30
REMARK H PARENT
REMARK Flexibility Score: inf
ROOT
ATOM      1  C   UNL     1      16.553   1.915  56.051  1.00  0.00     0.000 C 
ENDROOT
BRANCH   1   2
ATOM      2  C   UNL     1      16.625   0.414  55.729  1.00  0.00     0.000 C 
BRANCH   2   3
ATOM      3  C   UNL     1      16.891  -0.410  56.996  1.00  0.00     0.000 C 
BRANCH   3   4
ATOM      4  C   UNL     1      17.698   0.396  58.024  1.00  0.00     0.000 C 
BRANCH   4   5
ATOM      5  C   UNL     1      17.586  -0.171  59.452  1.00  0.00     0.000 C 
BRANCH   5   6
ATOM      6  C   UNL     1      16.158  -0.217  60.027  1.00  0.00     0.000 C 
BRANCH   6   7
ATOM      7  C   UNL     1      15.383   1.114  59.974  1.00  0.00     0.000 C 
BRANCH   7   8
ATOM      8  C   UNL     1      13.949   0.979  59.422  1.00  0.00     0.000 C 
BRANCH   8   9
ATOM      9  C   UNL     1      13.884   1.115  57.894  1.00  0.00     0.000 C 
BRANCH   9  10
ATOM     10  C   UNL     1      12.670   1.956  57.472  1.00  0.00     0.000 C 
BRANCH  10  11
ATOM     11  C   UNL     1      12.673   3.361  58.096  1.00  0.00     0.000 C 
BRANCH  11  12
ATOM     12  C   UNL     1      11.289   4.029  58.052  1.00  0.00     0.006 C 
BRANCH  12  13
ATOM     13  C   UNL     1      11.206   5.044  56.905  1.00  0.00     0.053 C 
BRANCH  13  14
ATOM     14  C   UNL     1       9.874   4.985  56.221  1.00  0.00     0.041 C 
ATOM     15  O   UNL     1       9.172   6.026  56.106  1.00  0.00    -0.550 OA
ATOM     16  O   UNL     1       9.419   3.788  55.684  1.00  0.00    -0.550 OA
ENDBRANCH  13  14
ENDBRANCH  12  13
ENDBRANCH  11  12
ENDBRANCH  10  11
ENDBRANCH   9  10
ENDBRANCH   8   9
ENDBRANCH   7   8
ENDBRANCH   6   7
ENDBRANCH   5   6
ENDBRANCH   4   5
ENDBRANCH   3   4
ENDBRANCH   2   3
ENDBRANCH   1   2
BRANCH   1  17
ATOM     17  C   UNL     1      15.554   2.673  55.159  1.00  0.00     0.000 C 
BRANCH  17  18
ATOM     18  C   UNL     1      15.231   4.108  55.620  1.00  0.00     0.000 C 
BRANCH  18  19
ATOM     19  C   UNL     1      13.885   4.671  55.118  1.00  0.00     0.000 C 
BRANCH  19  20
ATOM     20  C   UNL     1      13.061   3.715  54.236  1.00  0.00     0.000 C 
BRANCH  20  21
ATOM     21  C   UNL     1      11.982   4.437  53.412  1.00  0.00     0.000 C 
BRANCH  21  22
ATOM     22  C   UNL     1      12.367   5.888  53.057  1.00  0.00    -0.000 C 
BRANCH  22  23
ATOM     23  C   UNL     1      11.532   6.982  53.749  1.00  0.00    -0.000 C 
BRANCH  23  24
ATOM     24  C   UNL     1      11.067   8.084  52.782  1.00  0.00    -0.000 C 
BRANCH  24  25
ATOM     25  C   UNL     1       9.735   7.744  52.092  1.00  0.00    -0.000 C 
BRANCH  25  26
ATOM     26  C   UNL     1       8.601   7.455  53.087  1.00  0.00    -0.000 C 
BRANCH  26  27
ATOM     27  C   UNL     1       7.589   8.611  53.117  1.00  0.00    -0.000 C 
BRANCH  27  28
ATOM     28  C   UNL     1       8.165   9.884  53.767  1.00  0.00    -0.000 C 
BRANCH  28  29
ATOM     29  C   UNL     1       8.320   9.786  55.294  1.00  0.00    -0.003 C 
ATOM     30  C   UNL     1       9.774   9.833  55.756  1.00  0.00     0.004 C 
ENDBRANCH  28  29
ENDBRANCH  27  28
ENDBRANCH  26  27
ENDBRANCH  25  26
ENDBRANCH  24  25
ENDBRANCH  23  24
ENDBRANCH  22  23
ENDBRANCH  21  22
ENDBRANCH  20  21
ENDBRANCH  19  20
ENDBRANCH  18  19
ENDBRANCH  17  18
ENDBRANCH   1  17
TORSDOF 26
ENDMDL
MODEL 3
REMARK VINA RESULT:    -4.403      2.255      9.424
REMARK INTER + INTRA:         -14.392
REMARK INTER:                 -11.131
REMARK INTRA:                  -3.261
REMARK UNBOUND:                -3.297
REMARK SMILES CCCCCCCCCCCCCCCCCCCCCCCCCCCC(=O)[O-]
REMARK SMILES IDX 15 1 16 2 17 3 18 4 19 5 20 6 21 7 22 8 23 9 24 10 25 11
REMARK SMILES IDX 26 12 27 13 28 14 29 15 30 16 14 17 13 18 12 19 11 20 10 21
REMARK SMILES IDX 9 22 8 23 7 24 6 25 5 26 4 27 3 28 2 29 1 30
REMARK H PARENT
REMARK Flexibility Score: inf
ROOT
ATOM      1  C   UNL     1      12.346   6.188  53.008  1.00  0.00     0.000 C 
ENDROOT
BRANCH   1   2
ATOM      2  C   UNL     1      11.099   6.368  52.127  1.00  0.00     0.000 C 
BRANCH   2   3
ATOM      3  C   UNL     1      10.622   7.826  52.138  1.00  0.00     0.000 C 
BRANCH   3   4
ATOM      4  C   UNL     1       9.500   8.051  51.114  1.00  0.00     0.000 C 
BRANCH   4   5
ATOM      5  C   UNL     1       9.071   9.527  51.008  1.00  0.00     0.000 C 
BRANCH   5   6
ATOM      6  C   UNL     1       7.555   9.776  51.109  1.00  0.00     0.000 C 
BRANCH   6   7
ATOM      7  C   UNL     1       7.036  10.120  52.519  1.00  0.00     0.000 C 
BRANCH   7   8
ATOM      8  C   UNL     1       6.976   8.910  53.474  1.00  0.00     0.000 C 
BRANCH   8   9
ATOM      9  C   UNL     1       7.212   9.297  54.942  1.00  0.00     0.000 C 
BRANCH   9  10
ATOM     10  C   UNL     1       8.658   9.766  55.157  1.00  0.00     0.000 C 
BRANCH  10  11
ATOM     11  C   UNL     1       9.664   8.604  55.178  1.00  0.00     0.000 C 
BRANCH  11  12
ATOM     12  C   UNL     1       9.067   7.317  55.768  1.00  0.00     0.006 C 
BRANCH  12  13
ATOM     13  C   UNL     1      10.145   6.240  55.940  1.00  0.00     0.053 C 
BRANCH  13  14
ATOM     14  C   UNL     1       9.613   4.879  55.609  1.00  0.00     0.041 C 
ATOM     15  O   UNL     1       9.153   4.638  54.460  1.00  0.00    -0.550 OA
ATOM     16  O   UNL     1       9.652   3.866  56.559  1.00  0.00    -0.550 OA
ENDBRANCH  13  14
ENDBRANCH  12  13
ENDBRANCH  11  12
ENDBRANCH  10  11
ENDBRANCH   9  10
ENDBRANCH   8   9
ENDBRANCH   7   8
ENDBRANCH   6   7
ENDBRANCH   5   6
ENDBRANCH   4   5
ENDBRANCH   3   4
ENDBRANCH   2   3
ENDBRANCH   1   2
BRANCH   1  17
ATOM     17  C   UNL     1      12.513   4.748  53.524  1.00  0.00     0.000 C 
BRANCH  17  18
ATOM     18  C   UNL     1      13.283   4.620  54.854  1.00  0.00     0.000 C 
BRANCH  18  19
ATOM     19  C   UNL     1      12.937   3.375  55.696  1.00  0.00     0.000 C 
BRANCH  19  20
ATOM     20  C   UNL     1      13.139   3.531  57.215  1.00  0.00     0.000 C 
BRANCH  20  21
ATOM     21  C   UNL     1      12.644   2.314  58.015  1.00  0.00     0.000 C 
BRANCH  21  22
ATOM     22  C   UNL     1      13.702   1.197  58.125  1.00  0.00    -0.000 C 
BRANCH  22  23
ATOM     23  C   UNL     1      14.551   1.216  59.410  1.00  0.00    -0.000 C 
BRANCH  23  24
ATOM     24  C   UNL     1      15.488   0.001  59.528  1.00  0.00    -0.000 C 
BRANCH  24  25
ATOM     25  C   UNL     1      16.963   0.405  59.694  1.00  0.00    -0.000 C 
BRANCH  25  26
ATOM     26  C   UNL     1      17.790   0.195  58.417  1.00  0.00    -0.000 C 
BRANCH  26  27
ATOM     27  C   UNL     1      17.012  -0.643  57.390  1.00  0.00    -0.000 C 
BRANCH  27  28
ATOM     28  C   UNL     1      16.565   0.185  56.169  1.00  0.00    -0.000 C 
BRANCH  28  29
ATOM     29  C   UNL     1      17.068   1.638  56.186  1.00  0.00    -0.003 C 
ATOM     30  C   UNL     1      16.257   2.567  55.287  1.00  0.00     0.004 C 
ENDBRANCH  28  29
ENDBRANCH  27  28
ENDBRANCH  26  27
ENDBRANCH  25  26
ENDBRANCH  24  25
ENDBRANCH  23  24
ENDBRANCH  22  23
ENDBRANCH  21  22
ENDBRANCH  20  21
ENDBRANCH  19  20
ENDBRANCH  18  19
ENDBRANCH  17  18
ENDBRANCH   1  17
TORSDOF 26
ENDMDL
MODEL 4
REMARK VINA RESULT:    -4.371      2.628      9.662
REMARK INTER + INTRA:         -14.311
REMARK INTER:                 -12.065
REMARK INTRA:                  -2.246
REMARK UNBOUND:                -3.297
REMARK SMILES CCCCCCCCCCCCCCCCCCCCCCCCCCCC(=O)[O-]
REMARK SMILES IDX 15 1 16 2 17 3 18 4 19 5 20 6 21 7 22 8 23 9 24 10 25 11
REMARK SMILES IDX 26 12 27 13 28 14 29 15 30 16 14 17 13 18 12 19 11 20 10 21
REMARK SMILES IDX 9 22 8 23 7 24 6 25 5 26 4 27 3 28 2 29 1 30
REMARK H PARENT
REMARK Flexibility Score: inf
ROOT
ATOM      1  C   UNL     1      11.497   3.901  54.196  1.00  0.00     0.000 C 
ENDROOT
BRANCH   1   2
ATOM      2  C   UNL     1      10.178   3.217  54.586  1.00  0.00     0.000 C 
BRANCH   2   3
ATOM      3  C   UNL     1       9.318   4.135  55.464  1.00  0.00     0.000 C 
BRANCH   3   4
ATOM      4  C   UNL     1       9.333   5.578  54.940  1.00  0.00     0.000 C 
BRANCH   4   5
ATOM      5  C   UNL     1       9.452   6.624  56.065  1.00  0.00     0.000 C 
BRANCH   5   6
ATOM      6  C   UNL     1       8.888   8.016  55.725  1.00  0.00     0.000 C 
BRANCH   6   7
ATOM      7  C   UNL     1       7.986   8.075  54.476  1.00  0.00     0.000 C 
BRANCH   7   8
ATOM      8  C   UNL     1       7.445   9.485  54.163  1.00  0.00     0.000 C 
BRANCH   8   9
ATOM      9  C   UNL     1       7.272   9.735  52.657  1.00  0.00     0.000 C 
BRANCH   9  10
ATOM     10  C   UNL     1       7.689   8.498  51.848  1.00  0.00     0.000 C 
BRANCH  10  11
ATOM     11  C   UNL     1       8.817   8.794  50.845  1.00  0.00     0.000 C 
BRANCH  11  12
ATOM     12  C   UNL     1      10.208   8.763  51.497  1.00  0.00     0.006 C 
BRANCH  12  13
ATOM     13  C   UNL     1      10.547   7.355  51.999  1.00  0.00     0.053 C 
BRANCH  13  14
ATOM     14  C   UNL     1      11.633   7.391  53.031  1.00  0.00     0.041 C 
ATOM     15  O   UNL     1      12.544   6.518  53.027  1.00  0.00    -0.550 OA
ATOM     16  O   UNL     1      11.660   8.406  53.979  1.00  0.00    -0.550 OA
ENDBRANCH  13  14
ENDBRANCH  12  13
ENDBRANCH  11  12
ENDBRANCH  10  11
ENDBRANCH   9  10
ENDBRANCH   8   9
ENDBRANCH   7   8
ENDBRANCH   6   7
ENDBRANCH   5   6
ENDBRANCH   4   5
ENDBRANCH   3   4
ENDBRANCH   2   3
ENDBRANCH   1   2
BRANCH   1  17
ATOM     17  C   UNL     1      12.616   3.682  55.230  1.00  0.00     0.000 C 
BRANCH  17  18
ATOM     18  C   UNL     1      12.215   3.971  56.690  1.00  0.00     0.000 C 
BRANCH  18  19
ATOM     19  C   UNL     1      12.007   2.724  57.573  1.00  0.00     0.000 C 
BRANCH  19  20
ATOM     20  C   UNL     1      13.282   1.914  57.878  1.00  0.00     0.000 C 
BRANCH  20  21
ATOM     21  C   UNL     1      13.699   1.985  59.357  1.00  0.00     0.000 C 
BRANCH  21  22
ATOM     22  C   UNL     1      14.392   0.697  59.848  1.00  0.00    -0.000 C 
BRANCH  22  23
ATOM     23  C   UNL     1      15.901   0.824  60.125  1.00  0.00    -0.000 C 
BRANCH  23  24
ATOM     24  C   UNL     1      16.645  -0.520  60.028  1.00  0.00    -0.000 C 
BRANCH  24  25
ATOM     25  C   UNL     1      17.915  -0.433  59.166  1.00  0.00    -0.000 C 
BRANCH  25  26
ATOM     26  C   UNL     1      17.714   0.387  57.882  1.00  0.00    -0.000 C 
BRANCH  26  27
ATOM     27  C   UNL     1      16.561  -0.185  57.041  1.00  0.00    -0.000 C 
BRANCH  27  28
ATOM     28  C   UNL     1      16.436   0.503  55.667  1.00  0.00    -0.000 C 
BRANCH  28  29
ATOM     29  C   UNL     1      16.913   1.965  55.658  1.00  0.00    -0.003 C 
ATOM     30  C   UNL     1      15.767   2.973  55.635  1.00  0.00     0.004 C 
ENDBRANCH  28  29
ENDBRANCH  27  28
ENDBRANCH  26  27
ENDBRANCH  25  26
ENDBRANCH  24  25
ENDBRANCH  23  24
ENDBRANCH  22  23
ENDBRANCH  21  22
ENDBRANCH  20  21
ENDBRANCH  19  20
ENDBRANCH  18  19
ENDBRANCH  17  18
ENDBRANCH   1  17
TORSDOF 26
ENDMDL
MODEL 5
REMARK VINA RESULT:    -4.063      1.589      4.045
REMARK INTER + INTRA:         -13.534
REMARK INTER:                 -10.468
REMARK INTRA:                  -3.067
REMARK UNBOUND:                -3.297
REMARK SMILES CCCCCCCCCCCCCCCCCCCCCCCCCCCC(=O)[O-]
REMARK SMILES IDX 15 1 16 2 17 3 18 4 19 5 20 6 21 7 22 8 23 9 24 10 25 11
REMARK SMILES IDX 26 12 27 13 28 14 29 15 30 16 14 17 13 18 12 19 11 20 10 21
REMARK SMILES IDX 9 22 8 23 7 24 6 25 5 26 4 27 3 28 2 29 1 30
REMARK H PARENT
REMARK Flexibility Score: inf
ROOT
ATOM      1  C   UNL     1      10.294   8.007  55.732  1.00  0.00     0.000 C 
ENDROOT
BRANCH   1   2
ATOM      2  C   UNL     1       9.083   7.073  55.581  1.00  0.00     0.000 C 
BRANCH   2   3
ATOM      3  C   UNL     1       9.359   5.705  56.219  1.00  0.00     0.000 C 
BRANCH   3   4
ATOM      4  C   UNL     1      10.821   5.590  56.676  1.00  0.00     0.000 C 
BRANCH   4   5
ATOM      5  C   UNL     1      11.225   4.146  57.033  1.00  0.00     0.000 C 
BRANCH   5   6
ATOM      6  C   UNL     1      11.831   3.967  58.438  1.00  0.00     0.000 C 
BRANCH   6   7
ATOM      7  C   UNL     1      12.958   2.920  58.540  1.00  0.00     0.000 C 
BRANCH   7   8
ATOM      8  C   UNL     1      13.017   1.947  57.345  1.00  0.00     0.000 C 
BRANCH   8   9
ATOM      9  C   UNL     1      14.307   1.113  57.319  1.00  0.00     0.000 C 
BRANCH   9  10
ATOM     10  C   UNL     1      15.398   1.821  56.502  1.00  0.00     0.000 C 
BRANCH  10  11
ATOM     11  C   UNL     1      16.380   0.839  55.843  1.00  0.00     0.000 C 
BRANCH  11  12
ATOM     12  C   UNL     1      16.821  -0.283  56.796  1.00  0.00     0.006 C 
BRANCH  12  13
ATOM     13  C   UNL     1      17.813   0.242  57.840  1.00  0.00     0.053 C 
BRANCH  13  14
ATOM     14  C   UNL     1      17.416  -0.171  59.225  1.00  0.00     0.041 C 
ATOM     15  O   UNL     1      18.113  -1.006  59.864  1.00  0.00    -0.550 OA
ATOM     16  O   UNL     1      16.294   0.387  59.823  1.00  0.00    -0.550 OA
ENDBRANCH  13  14
ENDBRANCH  12  13
ENDBRANCH  11  12
ENDBRANCH  10  11
ENDBRANCH   9  10
ENDBRANCH   8   9
ENDBRANCH   7   8
ENDBRANCH   6   7
ENDBRANCH   5   6
ENDBRANCH   4   5
ENDBRANCH   3   4
ENDBRANCH   2   3
ENDBRANCH   1   2
BRANCH   1  17
ATOM     17  C   UNL     1       9.894   9.482  55.922  1.00  0.00     0.000 C 
BRANCH  17  18
ATOM     18  C   UNL     1       9.182  10.122  54.713  1.00  0.00     0.000 C 
BRANCH  18  19
ATOM     19  C   UNL     1       7.641  10.118  54.781  1.00  0.00     0.000 C 
BRANCH  19  20
ATOM     20  C   UNL     1       6.930   9.545  53.541  1.00  0.00     0.000 C 
BRANCH  20  21
ATOM     21  C   UNL     1       7.572   8.246  53.026  1.00  0.00     0.000 C 
BRANCH  21  22
ATOM     22  C   UNL     1       7.988   8.329  51.543  1.00  0.00    -0.000 C 
BRANCH  22  23
ATOM     23  C   UNL     1       9.447   7.939  51.243  1.00  0.00    -0.000 C 
BRANCH  23  24
ATOM     24  C   UNL     1      10.469   8.846  51.950  1.00  0.00    -0.000 C 
BRANCH  24  25
ATOM     25  C   UNL     1      11.574   8.049  52.663  1.00  0.00    -0.000 C 
BRANCH  25  26
ATOM     26  C   UNL     1      11.373   6.529  52.570  1.00  0.00    -0.000 C 
BRANCH  26  27
ATOM     27  C   UNL     1      12.547   5.780  53.221  1.00  0.00    -0.000 C 
BRANCH  27  28
ATOM     28  C   UNL     1      12.282   4.266  53.351  1.00  0.00    -0.000 C 
BRANCH  28  29
ATOM     29  C   UNL     1      10.797   3.909  53.530  1.00  0.00    -0.003 C 
ATOM     30  C   UNL     1      10.580   2.538  54.165  1.00  0.00     0.004 C 
ENDBRANCH  28  29
ENDBRANCH  27  28
ENDBRANCH  26  27
ENDBRANCH  25  26
ENDBRANCH  24  25
ENDBRANCH  23  24
ENDBRANCH  22  23
ENDBRANCH  21  22
ENDBRANCH  20  21
ENDBRANCH  19  20
ENDBRANCH  18  19
ENDBRANCH  17  18
ENDBRANCH   1  17
TORSDOF 26
ENDMDL
MODEL 6
REMARK VINA RESULT:    -4.053      2.294      5.458
REMARK INTER + INTRA:         -13.510
REMARK INTER:                 -10.501
REMARK INTRA:                  -3.009
REMARK UNBOUND:                -3.297
REMARK SMILES CCCCCCCCCCCCCCCCCCCCCCCCCCCC(=O)[O-]
REMARK SMILES IDX 15 1 16 2 17 3 18 4 19 5 20 6 21 7 22 8 23 9 24 10 25 11
REMARK SMILES IDX 26 12 27 13 28 14 29 15 30 16 14 17 13 18 12 19 11 20 10 21
REMARK SMILES IDX 9 22 8 23 7 24 6 25 5 26 4 27 3 28 2 29 1 30
REMARK H PARENT
REMARK Flexibility Score: inf
ROOT
ATOM      1  C   UNL     1      15.872   2.816  55.999  1.00  0.00     0.000 C 
ENDROOT
BRANCH   1   2
ATOM      2  C   UNL     1      16.320   1.532  55.283  1.00  0.00     0.000 C 
BRANCH   2   3
ATOM      3  C   UNL     1      16.432   0.362  56.269  1.00  0.00     0.000 C 
BRANCH   3   4
ATOM      4  C   UNL     1      17.301   0.735  57.478  1.00  0.00     0.000 C 
BRANCH   4   5
ATOM      5  C   UNL     1      17.329  -0.364  58.558  1.00  0.00     0.000 C 
BRANCH   5   6
ATOM      6  C   UNL     1      16.752   0.048  59.925  1.00  0.00     0.000 C 
BRANCH   6   7
ATOM      7  C   UNL     1      15.618   1.091  59.874  1.00  0.00     0.000 C 
BRANCH   7   8
ATOM      8  C   UNL     1      14.277   0.529  59.358  1.00  0.00     0.000 C 
BRANCH   8   9
ATOM      9  C   UNL     1      13.566   1.483  58.386  1.00  0.00     0.000 C 
BRANCH   9  10
ATOM     10  C   UNL     1      13.625   2.929  58.901  1.00  0.00     0.000 C 
BRANCH  10  11
ATOM     11  C   UNL     1      12.254   3.624  58.884  1.00  0.00     0.000 C 
BRANCH  11  12
ATOM     12  C   UNL     1      11.478   3.368  57.582  1.00  0.00     0.006 C 
BRANCH  12  13
ATOM     13  C   UNL     1      11.052   4.689  56.929  1.00  0.00     0.053 C 
BRANCH  13  14
ATOM     14  C   UNL     1       9.797   4.520  56.128  1.00  0.00     0.041 C 
ATOM     15  O   UNL     1       8.767   5.191  56.410  1.00  0.00    -0.550 OA
ATOM     16  O   UNL     1       9.770   3.643  55.051  1.00  0.00    -0.550 OA
ENDBRANCH  13  14
ENDBRANCH  12  13
ENDBRANCH  11  12
ENDBRANCH  10  11
ENDBRANCH   9  10
ENDBRANCH   8   9
ENDBRANCH   7   8
ENDBRANCH   6   7
ENDBRANCH   5   6
ENDBRANCH   4   5
ENDBRANCH   3   4
ENDBRANCH   2   3
ENDBRANCH   1   2
BRANCH   1  17
ATOM     17  C   UNL     1      15.250   3.850  55.044  1.00  0.00     0.000 C 
BRANCH  17  18
ATOM     18  C   UNL     1      13.752   4.130  55.277  1.00  0.00     0.000 C 
BRANCH  18  19
ATOM     19  C   UNL     1      12.886   4.173  54.001  1.00  0.00     0.000 C 
BRANCH  19  20
ATOM     20  C   UNL     1      12.776   5.553  53.327  1.00  0.00     0.000 C 
BRANCH  20  21
ATOM     21  C   UNL     1      11.479   6.297  53.689  1.00  0.00     0.000 C 
BRANCH  21  22
ATOM     22  C   UNL     1      11.715   7.780  54.041  1.00  0.00    -0.000 C 
BRANCH  22  23
ATOM     23  C   UNL     1      10.814   8.346  55.155  1.00  0.00    -0.000 C 
BRANCH  23  24
ATOM     24  C   UNL     1       9.331   7.978  54.973  1.00  0.00    -0.000 C 
BRANCH  24  25
ATOM     25  C   UNL     1       8.392   9.171  55.212  1.00  0.00    -0.000 C 
BRANCH  25  26
ATOM     26  C   UNL     1       7.885   9.807  53.909  1.00  0.00    -0.000 C 
BRANCH  26  27
ATOM     27  C   UNL     1       7.424   8.729  52.915  1.00  0.00    -0.000 C 
BRANCH  27  28
ATOM     28  C   UNL     1       7.411   9.235  51.458  1.00  0.00    -0.000 C 
BRANCH  28  29
ATOM     29  C   UNL     1       8.800   9.260  50.798  1.00  0.00    -0.003 C 
ATOM     30  C   UNL     1       9.579   7.961  50.986  1.00  0.00     0.004 C 
ENDBRANCH  28  29
ENDBRANCH  27  28
ENDBRANCH  26  27
ENDBRANCH  25  26
ENDBRANCH  24  25
ENDBRANCH  23  24
ENDBRANCH  22  23
ENDBRANCH  21  22
ENDBRANCH  20  21
ENDBRANCH  19  20
ENDBRANCH  18  19
ENDBRANCH  17  18
ENDBRANCH   1  17
TORSDOF 26
ENDMDL
MODEL 7
REMARK VINA RESULT:    -4.045      1.749      3.446
REMARK INTER + INTRA:         -13.490
REMARK INTER:                  -9.557
REMARK INTRA:                  -3.933
REMARK UNBOUND:                -3.297
REMARK SMILES CCCCCCCCCCCCCCCCCCCCCCCCCCCC(=O)[O-]
REMARK SMILES IDX 15 1 16 2 17 3 18 4 19 5 20 6 21 7 22 8 23 9 24 10 25 11
REMARK SMILES IDX 26 12 27 13 28 14 29 15 30 16 14 17 13 18 12 19 11 20 10 21
REMARK SMILES IDX 9 22 8 23 7 24 6 25 5 26 4 27 3 28 2 29 1 30
REMARK H PARENT
REMARK Flexibility Score: inf
ROOT
ATOM      1  C   UNL     1       9.360   4.201  54.681  1.00  0.00     0.000 C 
ENDROOT
BRANCH   1   2
ATOM      2  C   UNL     1       9.809   2.743  54.500  1.00  0.00     0.000 C 
BRANCH   2   3
ATOM      3  C   UNL     1      11.214   2.670  53.889  1.00  0.00     0.000 C 
BRANCH   3   4
ATOM      4  C   UNL     1      11.774   4.073  53.614  1.00  0.00     0.000 C 
BRANCH   4   5
ATOM      5  C   UNL     1      13.032   4.391  54.445  1.00  0.00     0.000 C 
BRANCH   5   6
ATOM      6  C   UNL     1      12.761   4.879  55.880  1.00  0.00     0.000 C 
BRANCH   6   7
ATOM      7  C   UNL     1      13.270   3.950  57.000  1.00  0.00     0.000 C 
BRANCH   7   8
ATOM      8  C   UNL     1      12.308   2.792  57.336  1.00  0.00     0.000 C 
BRANCH   8   9
ATOM      9  C   UNL     1      13.030   1.447  57.504  1.00  0.00     0.000 C 
BRANCH   9  10
ATOM     10  C   UNL     1      13.785   1.397  58.840  1.00  0.00     0.000 C 
BRANCH  10  11
ATOM     11  C   UNL     1      15.121   0.643  58.741  1.00  0.00     0.000 C 
BRANCH  11  12
ATOM     12  C   UNL     1      15.481   0.265  57.296  1.00  0.00     0.006 C 
BRANCH  12  13
ATOM     13  C   UNL     1      16.746   0.998  56.836  1.00  0.00     0.053 C 
BRANCH  13  14
ATOM     14  C   UNL     1      16.466   1.884  55.661  1.00  0.00     0.041 C 
ATOM     15  O   UNL     1      16.302   1.386  54.513  1.00  0.00    -0.550 OA
ATOM     16  O   UNL     1      16.354   3.258  55.835  1.00  0.00    -0.550 OA
ENDBRANCH  13  14
ENDBRANCH  12  13
ENDBRANCH  11  12
ENDBRANCH  10  11
ENDBRANCH   9  10
ENDBRANCH   8   9
ENDBRANCH   7   8
ENDBRANCH   6   7
ENDBRANCH   5   6
ENDBRANCH   4   5
ENDBRANCH   3   4
ENDBRANCH   2   3
ENDBRANCH   1   2
BRANCH   1  17
ATOM     17  C   UNL     1       9.332   4.642  56.155  1.00  0.00     0.000 C 
BRANCH  17  18
ATOM     18  C   UNL     1       9.165   6.159  56.376  1.00  0.00     0.000 C 
BRANCH  18  19
ATOM     19  C   UNL     1       8.818   6.972  55.112  1.00  0.00     0.000 C 
BRANCH  19  20
ATOM     20  C   UNL     1       8.071   8.295  55.366  1.00  0.00     0.000 C 
BRANCH  20  21
ATOM     21  C   UNL     1       7.521   8.931  54.079  1.00  0.00     0.000 C 
BRANCH  21  22
ATOM     22  C   UNL     1       8.366  10.125  53.590  1.00  0.00    -0.000 C 
BRANCH  22  23
ATOM     23  C   UNL     1       8.733  10.106  52.094  1.00  0.00    -0.000 C 
BRANCH  23  24
ATOM     24  C   UNL     1       8.365   8.782  51.401  1.00  0.00    -0.000 C 
BRANCH  24  25
ATOM     25  C   UNL     1       9.588   7.880  51.162  1.00  0.00    -0.000 C 
BRANCH  25  26
ATOM     26  C   UNL     1       9.963   7.039  52.391  1.00  0.00    -0.000 C 
BRANCH  26  27
ATOM     27  C   UNL     1      11.459   7.180  52.716  1.00  0.00    -0.000 C 
BRANCH  27  28
ATOM     28  C   UNL     1      11.776   8.478  53.486  1.00  0.00    -0.000 C 
BRANCH  28  29
ATOM     29  C   UNL     1      11.745   8.316  55.015  1.00  0.00    -0.003 C 
ATOM     30  C   UNL     1      11.351   9.595  55.748  1.00  0.00     0.004 C 
ENDBRANCH  28  29
ENDBRANCH  27  28
ENDBRANCH  26  27
ENDBRANCH  25  26
ENDBRANCH  24  25
ENDBRANCH  23  24
ENDBRANCH  22  23
ENDBRANCH  21  22
ENDBRANCH  20  21
ENDBRANCH  19  20
ENDBRANCH  18  19
ENDBRANCH  17  18
ENDBRANCH   1  17
TORSDOF 26
ENDMDL
MODEL 8
REMARK VINA RESULT:    -3.912      1.760      4.093
REMARK INTER + INTRA:         -13.156
REMARK INTER:                 -11.022
REMARK INTRA:                  -2.134
REMARK UNBOUND:                -3.297
REMARK SMILES CCCCCCCCCCCCCCCCCCCCCCCCCCCC(=O)[O-]
REMARK SMILES IDX 15 1 16 2 17 3 18 4 19 5 20 6 21 7 22 8 23 9 24 10 25 11
REMARK SMILES IDX 26 12 27 13 28 14 29 15 30 16 14 17 13 18 12 19 11 20 10 21
REMARK SMILES IDX 9 22 8 23 7 24 6 25 5 26 4 27 3 28 2 29 1 30
REMARK H PARENT
REMARK Flexibility Score: inf
ROOT
ATOM      1  C   UNL     1      10.500   7.468  55.379  1.00  0.00     0.000 C 
ENDROOT
BRANCH   1   2
ATOM      2  C   UNL     1       9.229   6.615  55.517  1.00  0.00     0.000 C 
BRANCH   2   3
ATOM      3  C   UNL     1       9.512   5.327  56.302  1.00  0.00     0.000 C 
BRANCH   3   4
ATOM      4  C   UNL     1      11.009   5.182  56.610  1.00  0.00     0.000 C 
BRANCH   4   5
ATOM      5  C   UNL     1      11.391   3.763  57.076  1.00  0.00     0.000 C 
BRANCH   5   6
ATOM      6  C   UNL     1      12.059   3.688  58.461  1.00  0.00     0.000 C 
BRANCH   6   7
ATOM      7  C   UNL     1      13.442   3.007  58.489  1.00  0.00     0.000 C 
BRANCH   7   8
ATOM      8  C   UNL     1      13.379   1.467  58.516  1.00  0.00     0.000 C 
BRANCH   8   9
ATOM      9  C   UNL     1      14.323   0.814  57.494  1.00  0.00     0.000 C 
BRANCH   9  10
ATOM     10  C   UNL     1      15.759   0.761  58.035  1.00  0.00     0.000 C 
BRANCH  10  11
ATOM     11  C   UNL     1      16.817   0.922  56.931  1.00  0.00     0.000 C 
BRANCH  11  12
ATOM     12  C   UNL     1      16.204   1.311  55.577  1.00  0.00     0.006 C 
BRANCH  12  13
ATOM     13  C   UNL     1      16.527   2.768  55.227  1.00  0.00     0.053 C 
BRANCH  13  14
ATOM     14  C   UNL     1      15.401   3.682  55.603  1.00  0.00     0.041 C 
ATOM     15  O   UNL     1      14.222   3.422  55.237  1.00  0.00    -0.550 OA
ATOM     16  O   UNL     1      15.645   4.804  56.385  1.00  0.00    -0.550 OA
ENDBRANCH  13  14
ENDBRANCH  12  13
ENDBRANCH  11  12
ENDBRANCH  10  11
ENDBRANCH   9  10
ENDBRANCH   8   9
ENDBRANCH   7   8
ENDBRANCH   6   7
ENDBRANCH   5   6
ENDBRANCH   4   5
ENDBRANCH   3   4
ENDBRANCH   2   3
ENDBRANCH   1   2
BRANCH   1  17
ATOM     17  C   UNL     1      10.347   8.876  55.981  1.00  0.00     0.000 C 
BRANCH  17  18
ATOM     18  C   UNL     1       9.541   9.867  55.118  1.00  0.00     0.000 C 
BRANCH  18  19
ATOM     19  C   UNL     1       8.092  10.115  55.584  1.00  0.00     0.000 C 
BRANCH  19  20
ATOM     20  C   UNL     1       6.998   9.656  54.601  1.00  0.00     0.000 C 
BRANCH  20  21
ATOM     21  C   UNL     1       7.565   8.934  53.366  1.00  0.00     0.000 C 
BRANCH  21  22
ATOM     22  C   UNL     1       8.320   9.881  52.411  1.00  0.00    -0.000 C 
BRANCH  22  23
ATOM     23  C   UNL     1       9.427   9.223  51.567  1.00  0.00    -0.000 C 
BRANCH  23  24
ATOM     24  C   UNL     1       9.492   7.696  51.746  1.00  0.00    -0.000 C 
BRANCH  24  25
ATOM     25  C   UNL     1      10.918   7.142  51.588  1.00  0.00    -0.000 C 
BRANCH  25  26
ATOM     26  C   UNL     1      11.734   7.205  52.888  1.00  0.00    -0.000 C 
BRANCH  26  27
ATOM     27  C   UNL     1      12.511   5.898  53.113  1.00  0.00    -0.000 C 
BRANCH  27  28
ATOM     28  C   UNL     1      11.829   4.684  52.450  1.00  0.00    -0.000 C 
BRANCH  28  29
ATOM     29  C   UNL     1      11.898   3.398  53.291  1.00  0.00    -0.003 C 
ATOM     30  C   UNL     1      10.569   3.036  53.947  1.00  0.00     0.004 C 
ENDBRANCH  28  29
ENDBRANCH  27  28
ENDBRANCH  26  27
ENDBRANCH  25  26
ENDBRANCH  24  25
ENDBRANCH  23  24
ENDBRANCH  22  23
ENDBRANCH  21  22
ENDBRANCH  20  21
ENDBRANCH  19  20
ENDBRANCH  18  19
ENDBRANCH  17  18
ENDBRANCH   1  17
TORSDOF 26
ENDMDL
MODEL 9
REMARK VINA RESULT:    -3.732      3.692      8.667
REMARK INTER + INTRA:         -12.700
REMARK INTER:                 -10.207
REMARK INTRA:                  -2.493
REMARK UNBOUND:                -3.297
REMARK SMILES CCCCCCCCCCCCCCCCCCCCCCCCCCCC(=O)[O-]
REMARK SMILES IDX 15 1 16 2 17 3 18 4 19 5 20 6 21 7 22 8 23 9 24 10 25 11
REMARK SMILES IDX 26 12 27 13 28 14 29 15 30 16 14 17 13 18 12 19 11 20 10 21
REMARK SMILES IDX 9 22 8 23 7 24 6 25 5 26 4 27 3 28 2 29 1 30
REMARK H PARENT
REMARK Flexibility Score: inf
ROOT
ATOM      1  C   UNL     1      14.509   0.956  58.213  1.00  0.00     0.000 C 
ENDROOT
BRANCH   1   2
ATOM      2  C   UNL     1      13.591   1.631  59.244  1.00  0.00     0.000 C 
BRANCH   2   3
ATOM      3  C   UNL     1      13.056   2.968  58.714  1.00  0.00     0.000 C 
BRANCH   3   4
ATOM      4  C   UNL     1      12.111   2.755  57.522  1.00  0.00     0.000 C 
BRANCH   4   5
ATOM      5  C   UNL     1      11.214   3.976  57.242  1.00  0.00     0.000 C 
BRANCH   5   6
ATOM      6  C   UNL     1       9.893   3.663  56.514  1.00  0.00     0.000 C 
BRANCH   6   7
ATOM      7  C   UNL     1       9.469   4.692  55.448  1.00  0.00     0.000 C 
BRANCH   7   8
ATOM      8  C   UNL     1       9.362   6.135  55.981  1.00  0.00     0.000 C 
BRANCH   8   9
ATOM      9  C   UNL     1       8.698   7.092  54.979  1.00  0.00     0.000 C 
BRANCH   9  10
ATOM     10  C   UNL     1       8.427   8.457  55.627  1.00  0.00     0.000 C 
BRANCH  10  11
ATOM     11  C   UNL     1       8.383   9.604  54.604  1.00  0.00     0.000 C 
BRANCH  11  12
ATOM     12  C   UNL     1       7.393   9.337  53.459  1.00  0.00     0.006 C 
BRANCH  12  13
ATOM     13  C   UNL     1       8.065   8.555  52.324  1.00  0.00     0.053 C 
BRANCH  13  14
ATOM     14  C   UNL     1       8.357   9.441  51.151  1.00  0.00     0.041 C 
ATOM     15  O   UNL     1       9.537   9.554  50.718  1.00  0.00    -0.550 OA
ATOM     16  O   UNL     1       7.325  10.119  50.516  1.00  0.00    -0.550 OA
ENDBRANCH  13  14
ENDBRANCH  12  13
ENDBRANCH  11  12
ENDBRANCH  10  11
ENDBRANCH   9  10
ENDBRANCH   8   9
ENDBRANCH   7   8
ENDBRANCH   6   7
ENDBRANCH   5   6
ENDBRANCH   4   5
ENDBRANCH   3   4
ENDBRANCH   2   3
ENDBRANCH   1   2
BRANCH   1  17
ATOM     17  C   UNL     1      15.849   0.495  58.814  1.00  0.00     0.000 C 
BRANCH  17  18
ATOM     18  C   UNL     1      17.007   0.374  57.803  1.00  0.00     0.000 C 
BRANCH  18  19
ATOM     19  C   UNL     1      16.619  -0.206  56.427  1.00  0.00     0.000 C 
BRANCH  19  20
ATOM     20  C   UNL     1      16.457   0.829  55.299  1.00  0.00     0.000 C 
BRANCH  20  21
ATOM     21  C   UNL     1      16.522   2.281  55.802  1.00  0.00     0.000 C 
BRANCH  21  22
ATOM     22  C   UNL     1      15.635   3.241  54.983  1.00  0.00    -0.000 C 
BRANCH  22  23
ATOM     23  C   UNL     1      15.048   4.430  55.767  1.00  0.00    -0.000 C 
BRANCH  23  24
ATOM     24  C   UNL     1      13.604   4.766  55.358  1.00  0.00    -0.000 C 
BRANCH  24  25
ATOM     25  C   UNL     1      13.053   3.806  54.290  1.00  0.00    -0.000 C 
BRANCH  25  26
ATOM     26  C   UNL     1      12.008   4.463  53.375  1.00  0.00    -0.000 C 
BRANCH  26  27
ATOM     27  C   UNL     1      12.525   5.801  52.823  1.00  0.00    -0.000 C 
BRANCH  27  28
ATOM     28  C   UNL     1      11.392   6.819  52.584  1.00  0.00    -0.000 C 
BRANCH  28  29
ATOM     29  C   UNL     1      11.589   8.152  53.325  1.00  0.00    -0.003 C 
ATOM     30  C   UNL     1      11.856   7.978  54.817  1.00  0.00     0.004 C 
ENDBRANCH  28  29
ENDBRANCH  27  28
ENDBRANCH  26  27
ENDBRANCH  25  26
ENDBRANCH  24  25
ENDBRANCH  23  24
ENDBRANCH  22  23
ENDBRANCH  21  22
ENDBRANCH  20  21
ENDBRANCH  19  20
ENDBRANCH  18  19
ENDBRANCH  17  18
ENDBRANCH   1  17
TORSDOF 26
ENDMDL
