MODEL 1
REMARK VINA RESULT:    -3.685      0.000      0.000
REMARK INTER + INTRA:          -4.845
REMARK INTER:                  -4.439
REMARK INTRA:                  -0.406
REMARK UNBOUND:                -0.406
REMARK SMILES O=c1c(O)c(-c2ccc(O)cc2O)oc2cc(O)cc(O)c12
REMARK SMILES IDX 5 1 3 2 2 3 1 4 22 5 20 6 19 7 17 8 16 9 15 10 14 11 6 12
REMARK SMILES IDX 8 13 7 14 9 15 11 16 12 17 10 18 13 20 4 22 21 24 18 26
REMARK H PARENT 10 19 13 21 4 23 21 25 18 27
REMARK Flexibility Score: inf
ROOT
ATOM      1  C   UNL     1      76.596  34.909  52.489  1.00  0.00     0.184 A 
ATOM      2  C   UNL     1      76.537  35.556  51.244  1.00  0.00     0.208 A 
ATOM      3  C   UNL     1      77.687  35.593  50.440  1.00  0.00     0.238 A 
ATOM      4  O   UNL     1      77.611  36.125  49.301  1.00  0.00    -0.285 OA
ATOM      5  C   UNL     1      78.888  35.001  50.900  1.00  0.00     0.111 A 
ATOM      6  C   UNL     1      80.124  35.014  50.186  1.00  0.00     0.134 A 
ATOM      7  C   UNL     1      81.214  34.285  50.679  1.00  0.00     0.093 A 
ATOM      8  C   UNL     1      81.134  33.600  51.890  1.00  0.00     0.123 A 
ATOM      9  C   UNL     1      79.948  33.629  52.626  1.00  0.00     0.094 A 
ATOM     10  C   UNL     1      78.832  34.317  52.142  1.00  0.00     0.146 A 
ATOM     11  O   UNL     1      77.720  34.310  52.867  1.00  0.00    -0.451 OA
ENDROOT
BRANCH   1  12
ATOM     12  C   UNL     1      75.428  34.853  53.398  1.00  0.00     0.063 A 
ATOM     13  C   UNL     1      73.791  35.983  54.801  1.00  0.00     0.047 A 
ATOM     14  C   UNL     1      74.876  36.036  53.922  1.00  0.00     0.020 A 
ATOM     15  C   UNL     1      73.249  34.749  55.178  1.00  0.00     0.119 A 
ATOM     16  C   UNL     1      73.799  33.568  54.672  1.00  0.00     0.093 A 
ATOM     17  C   UNL     1      74.886  33.611  53.788  1.00  0.00     0.130 A 
BRANCH  15  18
ATOM     18  O   UNL     1      72.168  34.686  56.053  1.00  0.00    -0.508 OA
ATOM     19  H   UNL     1      71.312  35.199  55.875  1.00  0.00     0.293 HD
ENDBRANCH  15  18
BRANCH  17  20
ATOM     20  O   UNL     1      75.421  32.424  53.287  1.00  0.00    -0.507 OA
ATOM     21  H   UNL     1      75.917  31.771  53.883  1.00  0.00     0.293 HD
ENDBRANCH  17  20
ENDBRANCH   1  12
BRANCH   2  22
ATOM     22  O   UNL     1      75.336  36.122  50.805  1.00  0.00    -0.502 OA
ATOM     23  H   UNL     1      74.435  35.832  51.164  1.00  0.00     0.293 HD
ENDBRANCH   2  22
BRANCH   6  24
ATOM     24  O   UNL     1      80.340  35.742  49.012  1.00  0.00    -0.507 OA
ATOM     25  H   UNL     1      80.841  35.400  48.207  1.00  0.00     0.293 HD
ENDBRANCH   6  24
BRANCH   8  26
ATOM     26  O   UNL     1      82.242  32.899  52.358  1.00  0.00    -0.508 OA
ATOM     27  H   UNL     1      82.200  32.344  53.205  1.00  0.00     0.293 HD
ENDBRANCH   8  26
TORSDOF 6
ENDMDL
MODEL 2
REMARK VINA RESULT:    -2.297     14.750     17.446
REMARK INTER + INTRA:          -3.174
REMARK INTER:                  -2.751
REMARK INTRA:                  -0.422
REMARK UNBOUND:                -0.406
REMARK SMILES O=c1c(O)c(-c2ccc(O)cc2O)oc2cc(O)cc(O)c12
REMARK SMILES IDX 5 1 3 2 2 3 1 4 22 5 20 6 19 7 17 8 16 9 15 10 14 11 6 12
REMARK SMILES IDX 8 13 7 14 9 15 11 16 12 17 10 18 13 20 4 22 21 24 18 26
REMARK H PARENT 10 19 13 21 4 23 21 25 18 27
REMARK Flexibility Score: inf
ROOT
ATOM      1  C   UNL     1      87.851  31.128  65.061  1.00  0.00     0.184 A 
ATOM      2  C   UNL     1      88.528  31.692  66.155  1.00  0.00     0.208 A 
ATOM      3  C   UNL     1      88.563  33.089  66.287  1.00  0.00     0.238 A 
ATOM      4  O   UNL     1      89.121  33.587  67.301  1.00  0.00    -0.285 OA
ATOM      5  C   UNL     1      87.939  33.906  65.313  1.00  0.00     0.111 A 
ATOM      6  C   UNL     1      87.946  35.333  65.325  1.00  0.00     0.134 A 
ATOM      7  C   UNL     1      87.188  36.036  64.381  1.00  0.00     0.093 A 
ATOM      8  C   UNL     1      86.476  35.366  63.386  1.00  0.00     0.123 A 
ATOM      9  C   UNL     1      86.510  33.972  63.328  1.00  0.00     0.094 A 
ATOM     10  C   UNL     1      87.228  33.242  64.279  1.00  0.00     0.146 A 
ATOM     11  O   UNL     1      87.225  31.917  64.196  1.00  0.00    -0.451 OA
ENDROOT
BRANCH   1  12
ATOM     12  C   UNL     1      87.796  29.663  64.847  1.00  0.00     0.063 A 
ATOM     13  C   UNL     1      88.917  27.558  64.360  1.00  0.00     0.047 A 
ATOM     14  C   UNL     1      88.972  28.935  64.590  1.00  0.00     0.020 A 
ATOM     15  C   UNL     1      87.688  26.890  64.374  1.00  0.00     0.119 A 
ATOM     16  C   UNL     1      86.513  27.607  64.616  1.00  0.00     0.093 A 
ATOM     17  C   UNL     1      86.557  28.989  64.849  1.00  0.00     0.130 A 
BRANCH  15  18
ATOM     18  O   UNL     1      87.623  25.518  64.147  1.00  0.00    -0.508 OA
ATOM     19  H   UNL     1      88.460  24.963  64.011  1.00  0.00     0.293 HD
ENDBRANCH  15  18
BRANCH  17  20
ATOM     20  O   UNL     1      85.377  29.690  65.094  1.00  0.00    -0.507 OA
ATOM     21  H   UNL     1      85.384  30.674  65.340  1.00  0.00     0.293 HD
ENDBRANCH  17  20
ENDBRANCH   1  12
BRANCH   2  22
ATOM     22  O   UNL     1      89.125  30.866  67.112  1.00  0.00    -0.502 OA
ATOM     23  H   UNL     1      88.638  30.560  67.946  1.00  0.00     0.293 HD
ENDBRANCH   2  22
BRANCH   6  24
ATOM     24  O   UNL     1      88.697  36.102  66.220  1.00  0.00    -0.507 OA
ATOM     25  H   UNL     1      89.552  35.800  66.661  1.00  0.00     0.293 HD
ENDBRANCH   6  24
BRANCH   8  26
ATOM     26  O   UNL     1      85.745  36.098  62.453  1.00  0.00    -0.508 OA
ATOM     27  H   UNL     1      86.188  36.782  61.852  1.00  0.00     0.293 HD
ENDBRANCH   8  26
TORSDOF 6
ENDMDL
MODEL 3
REMARK VINA RESULT:    -2.016     15.957     17.577
REMARK INTER + INTRA:          -2.835
REMARK INTER:                  -2.353
REMARK INTRA:                  -0.481
REMARK UNBOUND:                -0.406
REMARK SMILES O=c1c(O)c(-c2ccc(O)cc2O)oc2cc(O)cc(O)c12
REMARK SMILES IDX 5 1 3 2 2 3 1 4 22 5 20 6 19 7 17 8 16 9 15 10 14 11 6 12
REMARK SMILES IDX 8 13 7 14 9 15 11 16 12 17 10 18 13 20 4 22 21 24 18 26
REMARK H PARENT 10 19 13 21 4 23 21 25 18 27
REMARK Flexibility Score: inf
ROOT
ATOM      1  C   UNL     1      86.984  31.037  65.426  1.00  0.00     0.184 A 
ATOM      2  C   UNL     1      85.607  30.807  65.275  1.00  0.00     0.208 A 
ATOM      3  C   UNL     1      85.167  29.526  64.906  1.00  0.00     0.238 A 
ATOM      4  O   UNL     1      83.928  29.311  64.828  1.00  0.00    -0.285 OA
ATOM      5  C   UNL     1      86.110  28.496  64.672  1.00  0.00     0.111 A 
ATOM      6  C   UNL     1      85.779  27.172  64.256  1.00  0.00     0.134 A 
ATOM      7  C   UNL     1      86.785  26.200  64.180  1.00  0.00     0.093 A 
ATOM      8  C   UNL     1      88.116  26.520  64.441  1.00  0.00     0.123 A 
ATOM      9  C   UNL     1      88.460  27.826  64.792  1.00  0.00     0.094 A 
ATOM     10  C   UNL     1      87.474  28.809  64.912  1.00  0.00     0.146 A 
ATOM     11  O   UNL     1      87.841  30.036  65.259  1.00  0.00    -0.451 OA
ENDROOT
BRANCH   1  12
ATOM     12  C   UNL     1      87.519  32.370  65.790  1.00  0.00     0.063 A 
ATOM     13  C   UNL     1      88.100  34.650  65.169  1.00  0.00     0.047 A 
ATOM     14  C   UNL     1      87.570  33.402  64.835  1.00  0.00     0.020 A 
ATOM     15  C   UNL     1      88.595  34.884  66.457  1.00  0.00     0.119 A 
ATOM     16  C   UNL     1      88.561  33.860  67.408  1.00  0.00     0.093 A 
ATOM     17  C   UNL     1      88.029  32.604  67.084  1.00  0.00     0.130 A 
BRANCH  15  18
ATOM     18  O   UNL     1      89.125  36.125  66.801  1.00  0.00    -0.508 OA
ATOM     19  H   UNL     1      89.609  36.700  66.121  1.00  0.00     0.293 HD
ENDBRANCH  15  18
BRANCH  17  20
ATOM     20  O   UNL     1      87.996  31.594  68.045  1.00  0.00    -0.507 OA
ATOM     21  H   UNL     1      88.143  30.622  67.799  1.00  0.00     0.293 HD
ENDBRANCH  17  20
ENDBRANCH   1  12
BRANCH   2  22
ATOM     22  O   UNL     1      84.693  31.835  65.524  1.00  0.00    -0.502 OA
ATOM     23  H   UNL     1      83.963  31.757  66.223  1.00  0.00     0.293 HD
ENDBRANCH   2  22
BRANCH   6  24
ATOM     24  O   UNL     1      84.493  26.770  63.882  1.00  0.00    -0.507 OA
ATOM     25  H   UNL     1      84.289  26.022  63.237  1.00  0.00     0.293 HD
ENDBRANCH   6  24
BRANCH   8  26
ATOM     26  O   UNL     1      89.093  25.531  64.340  1.00  0.00    -0.508 OA
ATOM     27  H   UNL     1      89.603  25.376  63.478  1.00  0.00     0.293 HD
ENDBRANCH   8  26
TORSDOF 6
ENDMDL
MODEL 4
REMARK VINA RESULT:    -1.651     15.139     18.019
REMARK INTER + INTRA:          -2.395
REMARK INTER:                  -1.952
REMARK INTRA:                  -0.444
REMARK UNBOUND:                -0.406
REMARK SMILES O=c1c(O)c(-c2ccc(O)cc2O)oc2cc(O)cc(O)c12
REMARK SMILES IDX 5 1 3 2 2 3 1 4 22 5 20 6 19 7 17 8 16 9 15 10 14 11 6 12
REMARK SMILES IDX 8 13 7 14 9 15 11 16 12 17 10 18 13 20 4 22 21 24 18 26
REMARK H PARENT 10 19 13 21 4 23 21 25 18 27
REMARK Flexibility Score: inf
ROOT
ATOM      1  C   UNL     1      87.923  28.966  64.855  1.00  0.00     0.184 A 
ATOM      2  C   UNL     1      88.540  29.253  66.084  1.00  0.00     0.208 A 
ATOM      3  C   UNL     1      88.526  30.573  66.561  1.00  0.00     0.238 A 
ATOM      4  O   UNL     1      89.029  30.813  67.690  1.00  0.00    -0.285 OA
ATOM      5  C   UNL     1      87.915  31.594  65.793  1.00  0.00     0.111 A 
ATOM      6  C   UNL     1      87.877  32.972  66.159  1.00  0.00     0.134 A 
ATOM      7  C   UNL     1      87.134  33.873  65.386  1.00  0.00     0.093 A 
ATOM      8  C   UNL     1      86.483  33.458  64.225  1.00  0.00     0.123 A 
ATOM      9  C   UNL     1      86.562  32.124  63.825  1.00  0.00     0.094 A 
ATOM     10  C   UNL     1      87.265  31.194  64.595  1.00  0.00     0.146 A 
ATOM     11  O   UNL     1      87.306  29.932  64.186  1.00  0.00    -0.451 OA
ENDROOT
BRANCH   1  12
ATOM     12  C   UNL     1      87.922  27.600  64.281  1.00  0.00     0.063 A 
ATOM     13  C   UNL     1      89.119  25.728  63.288  1.00  0.00     0.047 A 
ATOM     14  C   UNL     1      89.122  27.005  63.854  1.00  0.00     0.020 A 
ATOM     15  C   UNL     1      87.915  25.031  63.130  1.00  0.00     0.119 A 
ATOM     16  C   UNL     1      86.715  25.619  63.540  1.00  0.00     0.093 A 
ATOM     17  C   UNL     1      86.709  26.900  64.111  1.00  0.00     0.130 A 
BRANCH  15  18
ATOM     18  O   UNL     1      87.900  23.757  62.567  1.00  0.00    -0.508 OA
ATOM     19  H   UNL     1      87.500  23.588  61.651  1.00  0.00     0.293 HD
ENDBRANCH  15  18
BRANCH  17  20
ATOM     20  O   UNL     1      85.505  27.472  64.520  1.00  0.00    -0.507 OA
ATOM     21  H   UNL     1      84.665  27.403  63.956  1.00  0.00     0.293 HD
ENDBRANCH  17  20
ENDBRANCH   1  12
BRANCH   2  22
ATOM     22  O   UNL     1      89.125  28.226  66.831  1.00  0.00    -0.502 OA
ATOM     23  H   UNL     1      88.876  28.047  67.797  1.00  0.00     0.293 HD
ENDBRANCH   2  22
BRANCH   6  24
ATOM     24  O   UNL     1      88.569  33.509  67.249  1.00  0.00    -0.507 OA
ATOM     25  H   UNL     1      88.780  34.488  67.372  1.00  0.00     0.293 HD
ENDBRANCH   6  24
BRANCH   8  26
ATOM     26  O   UNL     1      85.765  34.385  63.472  1.00  0.00    -0.508 OA
ATOM     27  H   UNL     1      85.975  35.375  63.510  1.00  0.00     0.293 HD
ENDBRANCH   8  26
TORSDOF 6
ENDMDL
MODEL 5
REMARK VINA RESULT:    -1.486      1.563      6.360
REMARK INTER + INTRA:          -2.196
REMARK INTER:                  -2.081
REMARK INTRA:                  -0.115
REMARK UNBOUND:                -0.406
REMARK SMILES O=c1c(O)c(-c2ccc(O)cc2O)oc2cc(O)cc(O)c12
REMARK SMILES IDX 5 1 3 2 2 3 1 4 22 5 20 6 19 7 17 8 16 9 15 10 14 11 6 12
REMARK SMILES IDX 8 13 7 14 9 15 11 16 12 17 10 18 13 20 4 22 21 24 18 26
REMARK H PARENT 10 19 13 21 4 23 21 25 18 27
REMARK Flexibility Score: inf
ROOT
ATOM      1  C   UNL     1      77.198  34.127  52.297  1.00  0.00     0.184 A 
ATOM      2  C   UNL     1      76.563  35.045  51.445  1.00  0.00     0.208 A 
ATOM      3  C   UNL     1      75.181  35.252  51.576  1.00  0.00     0.238 A 
ATOM      4  O   UNL     1      74.627  36.118  50.848  1.00  0.00    -0.285 OA
ATOM      5  C   UNL     1      74.447  34.523  52.543  1.00  0.00     0.111 A 
ATOM      6  C   UNL     1      73.037  34.623  52.737  1.00  0.00     0.134 A 
ATOM      7  C   UNL     1      72.437  33.950  53.809  1.00  0.00     0.093 A 
ATOM      8  C   UNL     1      73.184  33.130  54.653  1.00  0.00     0.123 A 
ATOM      9  C   UNL     1      74.555  32.978  54.437  1.00  0.00     0.094 A 
ATOM     10  C   UNL     1      75.188  33.665  53.398  1.00  0.00     0.146 A 
ATOM     11  O   UNL     1      76.495  33.503  53.234  1.00  0.00    -0.451 OA
ENDROOT
BRANCH   1  12
ATOM     12  C   UNL     1      78.649  33.842  52.197  1.00  0.00     0.063 A 
ATOM     13  C   UNL     1      80.938  34.624  51.924  1.00  0.00     0.047 A 
ATOM     14  C   UNL     1      79.572  34.892  52.046  1.00  0.00     0.020 A 
ATOM     15  C   UNL     1      81.400  33.303  51.940  1.00  0.00     0.119 A 
ATOM     16  C   UNL     1      80.488  32.252  52.077  1.00  0.00     0.093 A 
ATOM     17  C   UNL     1      79.116  32.512  52.202  1.00  0.00     0.130 A 
BRANCH  15  18
ATOM     18  O   UNL     1      82.759  33.024  51.819  1.00  0.00    -0.508 OA
ATOM     19  H   UNL     1      83.111  32.414  51.091  1.00  0.00     0.293 HD
ENDBRANCH  15  18
BRANCH  17  20
ATOM     20  O   UNL     1      78.219  31.453  52.344  1.00  0.00    -0.507 OA
ATOM     21  H   UNL     1      77.257  31.606  52.625  1.00  0.00     0.293 HD
ENDBRANCH  17  20
ENDBRANCH   1  12
BRANCH   2  22
ATOM     22  O   UNL     1      77.309  35.763  50.506  1.00  0.00    -0.502 OA
ATOM     23  H   UNL     1      77.041  36.688  50.190  1.00  0.00     0.293 HD
ENDBRANCH   2  22
BRANCH   6  24
ATOM     24  O   UNL     1      72.183  35.342  51.895  1.00  0.00    -0.507 OA
ATOM     25  H   UNL     1      72.018  36.335  51.956  1.00  0.00     0.293 HD
ENDBRANCH   6  24
BRANCH   8  26
ATOM     26  O   UNL     1      72.552  32.463  55.700  1.00  0.00    -0.508 OA
ATOM     27  H   UNL     1      72.451  31.455  55.701  1.00  0.00     0.293 HD
ENDBRANCH   8  26
TORSDOF 6
ENDMDL
MODEL 6
REMARK VINA RESULT:    -1.486     15.851     17.470
REMARK INTER + INTRA:          -2.196
REMARK INTER:                  -2.111
REMARK INTRA:                  -0.085
REMARK UNBOUND:                -0.406
REMARK SMILES O=c1c(O)c(-c2ccc(O)cc2O)oc2cc(O)cc(O)c12
REMARK SMILES IDX 5 1 3 2 2 3 1 4 22 5 20 6 19 7 17 8 16 9 15 10 14 11 6 12
REMARK SMILES IDX 8 13 7 14 9 15 11 16 12 17 10 18 13 20 4 22 21 24 18 26
REMARK H PARENT 10 19 13 21 4 23 21 25 18 27
REMARK Flexibility Score: inf
ROOT
ATOM      1  C   UNL     1      87.088  31.022  65.456  1.00  0.00     0.184 A 
ATOM      2  C   UNL     1      85.708  30.812  65.298  1.00  0.00     0.208 A 
ATOM      3  C   UNL     1      85.251  29.539  64.922  1.00  0.00     0.238 A 
ATOM      4  O   UNL     1      84.010  29.342  64.839  1.00  0.00    -0.285 OA
ATOM      5  C   UNL     1      86.181  28.498  64.687  1.00  0.00     0.111 A 
ATOM      6  C   UNL     1      85.834  27.180  64.263  1.00  0.00     0.134 A 
ATOM      7  C   UNL     1      86.826  26.195  64.185  1.00  0.00     0.093 A 
ATOM      8  C   UNL     1      88.161  26.495  64.452  1.00  0.00     0.123 A 
ATOM      9  C   UNL     1      88.521  27.794  64.811  1.00  0.00     0.094 A 
ATOM     10  C   UNL     1      87.549  28.790  64.932  1.00  0.00     0.146 A 
ATOM     11  O   UNL     1      87.931  30.011  65.287  1.00  0.00    -0.451 OA
ENDROOT
BRANCH   1  12
ATOM     12  C   UNL     1      87.640  32.346  65.828  1.00  0.00     0.063 A 
ATOM     13  C   UNL     1      88.898  33.749  67.367  1.00  0.00     0.047 A 
ATOM     14  C   UNL     1      88.401  32.496  67.001  1.00  0.00     0.020 A 
ATOM     15  C   UNL     1      88.634  34.871  66.574  1.00  0.00     0.119 A 
ATOM     16  C   UNL     1      87.867  34.734  65.413  1.00  0.00     0.093 A 
ATOM     17  C   UNL     1      87.365  33.480  65.036  1.00  0.00     0.130 A 
BRANCH  15  18
ATOM     18  O   UNL     1      89.125  36.125  66.930  1.00  0.00    -0.508 OA
ATOM     19  H   UNL     1      90.098  36.371  66.791  1.00  0.00     0.293 HD
ENDBRANCH  15  18
BRANCH  17  20
ATOM     20  O   UNL     1      86.606  33.357  63.873  1.00  0.00    -0.507 OA
ATOM     21  H   UNL     1      85.771  33.911  63.722  1.00  0.00     0.293 HD
ENDBRANCH  17  20
ENDBRANCH   1  12
BRANCH   2  22
ATOM     22  O   UNL     1      84.807  31.851  65.549  1.00  0.00    -0.502 OA
ATOM     23  H   UNL     1      83.805  31.708  65.578  1.00  0.00     0.293 HD
ENDBRANCH   2  22
BRANCH   6  24
ATOM     24  O   UNL     1      84.544  26.797  63.882  1.00  0.00    -0.507 OA
ATOM     25  H   UNL     1      84.176  26.864  62.946  1.00  0.00     0.293 HD
ENDBRANCH   6  24
BRANCH   8  26
ATOM     26  O   UNL     1      89.124  25.493  64.350  1.00  0.00    -0.508 OA
ATOM     27  H   UNL     1      88.892  24.518  64.497  1.00  0.00     0.293 HD
ENDBRANCH   8  26
TORSDOF 6
ENDMDL
MODEL 7
REMARK VINA RESULT:    -0.955     14.726     17.705
REMARK INTER + INTRA:          -1.557
REMARK INTER:                  -1.357
REMARK INTRA:                  -0.199
REMARK UNBOUND:                -0.406
REMARK SMILES O=c1c(O)c(-c2ccc(O)cc2O)oc2cc(O)cc(O)c12
REMARK SMILES IDX 5 1 3 2 2 3 1 4 22 5 20 6 19 7 17 8 16 9 15 10 14 11 6 12
REMARK SMILES IDX 8 13 7 14 9 15 11 16 12 17 10 18 13 20 4 22 21 24 18 26
REMARK H PARENT 10 19 13 21 4 23 21 25 18 27
REMARK Flexibility Score: inf
ROOT
ATOM      1  C   UNL     1      87.004  28.398  64.487  1.00  0.00     0.184 A 
ATOM      2  C   UNL     1      87.803  29.193  65.327  1.00  0.00     0.208 A 
ATOM      3  C   UNL     1      87.243  30.336  65.917  1.00  0.00     0.238 A 
ATOM      4  O   UNL     1      87.946  31.012  66.713  1.00  0.00    -0.285 OA
ATOM      5  C   UNL     1      85.897  30.683  65.644  1.00  0.00     0.111 A 
ATOM      6  C   UNL     1      85.238  31.841  66.155  1.00  0.00     0.134 A 
ATOM      7  C   UNL     1      83.868  32.016  65.923  1.00  0.00     0.093 A 
ATOM      8  C   UNL     1      83.149  31.111  65.144  1.00  0.00     0.123 A 
ATOM      9  C   UNL     1      83.796  30.006  64.590  1.00  0.00     0.094 A 
ATOM     10  C   UNL     1      85.154  29.785  64.834  1.00  0.00     0.146 A 
ATOM     11  O   UNL     1      85.729  28.716  64.298  1.00  0.00    -0.451 OA
ENDROOT
BRANCH   1  12
ATOM     12  C   UNL     1      87.538  27.192  63.813  1.00  0.00     0.063 A 
ATOM     13  C   UNL     1      87.550  24.777  63.508  1.00  0.00     0.047 A 
ATOM     14  C   UNL     1      87.028  25.918  64.122  1.00  0.00     0.020 A 
ATOM     15  C   UNL     1      88.594  24.890  62.584  1.00  0.00     0.119 A 
ATOM     16  C   UNL     1      89.116  26.151  62.279  1.00  0.00     0.093 A 
ATOM     17  C   UNL     1      88.598  27.302  62.889  1.00  0.00     0.130 A 
BRANCH  15  18
ATOM     18  O   UNL     1      89.122  23.759  61.965  1.00  0.00    -0.508 OA
ATOM     19  H   UNL     1      88.571  22.918  61.842  1.00  0.00     0.293 HD
ENDBRANCH  15  18
BRANCH  17  20
ATOM     20  O   UNL     1      89.125  28.553  62.572  1.00  0.00    -0.507 OA
ATOM     21  H   UNL     1      90.053  28.655  62.177  1.00  0.00     0.293 HD
ENDBRANCH  17  20
ENDBRANCH   1  12
BRANCH   2  22
ATOM     22  O   UNL     1      89.125  28.823  65.592  1.00  0.00    -0.502 OA
ATOM     23  H   UNL     1      89.883  29.013  64.948  1.00  0.00     0.293 HD
ENDBRANCH   2  22
BRANCH   6  24
ATOM     24  O   UNL     1      85.884  32.856  66.869  1.00  0.00    -0.507 OA
ATOM     25  H   UNL     1      86.314  32.739  67.773  1.00  0.00     0.293 HD
ENDBRANCH   6  24
BRANCH   8  26
ATOM     26  O   UNL     1      81.791  31.324  64.921  1.00  0.00    -0.508 OA
ATOM     27  H   UNL     1      81.465  32.025  64.265  1.00  0.00     0.293 HD
ENDBRANCH   8  26
TORSDOF 6
ENDMDL
