MODEL 1
REMARK VINA RESULT:    -7.694      0.000      0.000
REMARK INTER + INTRA:          -9.136
REMARK INTER:                  -9.494
REMARK INTRA:                   0.358
REMARK UNBOUND:                 0.358
REMARK SMILES Oc1cc(O)c2cc(O)c(-c3cc(O)c(O)c(O)c3)[o+]c2c1
REMARK SMILES IDX 10 1 20 2 21 3 22 4 2 5 3 6 4 7 6 8 7 9 8 10 11 11 12 12
REMARK SMILES IDX 13 13 19 14 15 15 17 16 14 17 16 19 18 21 9 23 1 25 5 27
REMARK H PARENT 14 18 16 20 18 22 9 24 1 26 5 28
REMARK Flexibility Score: inf
ROOT
ATOM      1  C   UNL     1       9.382 -12.887 -23.542  1.00  0.00     0.402 A 
ATOM      2  O   UNL     1       9.562 -11.569 -23.573  1.00  0.00    -0.202 OA
ATOM      3  C   UNL     1       9.261 -10.817 -24.626  1.00  0.00     0.368 A 
ATOM      4  C   UNL     1       9.489  -9.439 -24.566  1.00  0.00     0.162 A 
ATOM      5  C   UNL     1       9.186  -8.625 -25.658  1.00  0.00     0.128 A 
ATOM      6  C   UNL     1       8.651  -9.190 -26.821  1.00  0.00     0.093 A 
ATOM      7  C   UNL     1       8.414 -10.568 -26.907  1.00  0.00     0.136 A 
ATOM      8  C   UNL     1       8.719 -11.398 -25.798  1.00  0.00     0.125 A 
ATOM      9  C   UNL     1       8.501 -12.787 -25.790  1.00  0.00     0.078 A 
ATOM     10  C   UNL     1       8.822 -13.540 -24.656  1.00  0.00     0.223 A 
ENDROOT
BRANCH   1  11
ATOM     11  C   UNL     1       9.766 -13.617 -22.312  1.00  0.00     0.091 A 
ATOM     12  C   UNL     1       9.786 -15.021 -22.270  1.00  0.00     0.068 A 
ATOM     13  C   UNL     1      10.175 -15.694 -21.103  1.00  0.00     0.162 A 
ATOM     14  C   UNL     1      10.173 -12.895 -21.179  1.00  0.00     0.068 A 
ATOM     15  C   UNL     1      10.559 -14.962 -19.967  1.00  0.00     0.200 A 
ATOM     16  C   UNL     1      10.561 -13.557 -20.011  1.00  0.00     0.162 A 
BRANCH  13  17
ATOM     17  O   UNL     1      10.186 -17.088 -21.072  1.00  0.00    -0.504 OA
ATOM     18  H   UNL     1      11.023 -17.618 -21.282  1.00  0.00     0.293 HD
ENDBRANCH  13  17
BRANCH  15  19
ATOM     19  O   UNL     1      10.944 -15.616 -18.795  1.00  0.00    -0.502 OA
ATOM     20  H   UNL     1      11.299 -15.115 -17.990  1.00  0.00     0.293 HD
ENDBRANCH  15  19
BRANCH  16  21
ATOM     21  O   UNL     1      10.944 -12.802 -18.902  1.00  0.00    -0.504 OA
ATOM     22  H   UNL     1      10.806 -11.800 -18.859  1.00  0.00     0.293 HD
ENDBRANCH  16  21
ENDBRANCH   1  11
BRANCH  10  23
ATOM     23  O   UNL     1       8.561 -14.910 -24.629  1.00  0.00    -0.500 OA
ATOM     24  H   UNL     1       8.924 -15.534 -25.339  1.00  0.00     0.294 HD
ENDBRANCH  10  23
BRANCH   5  25
ATOM     25  O   UNL     1       9.420  -7.254 -25.578  1.00  0.00    -0.507 OA
ATOM     26  H   UNL     1       9.759  -6.823 -24.726  1.00  0.00     0.293 HD
ENDBRANCH   5  25
BRANCH   7  27
ATOM     27  O   UNL     1       7.880 -11.055 -28.104  1.00  0.00    -0.507 OA
ATOM     28  H   UNL     1       7.245 -11.838 -28.168  1.00  0.00     0.293 HD
ENDBRANCH   7  27
TORSDOF 7
ENDMDL
MODEL 2
REMARK VINA RESULT:    -7.100      3.961      6.232
REMARK INTER + INTRA:          -8.402
REMARK INTER:                  -8.257
REMARK INTRA:                  -0.146
REMARK UNBOUND:                 0.358
REMARK SMILES Oc1cc(O)c2cc(O)c(-c3cc(O)c(O)c(O)c3)[o+]c2c1
REMARK SMILES IDX 10 1 20 2 21 3 22 4 2 5 3 6 4 7 6 8 7 9 8 10 11 11 12 12
REMARK SMILES IDX 13 13 19 14 15 15 17 16 14 17 16 19 18 21 9 23 1 25 5 27
REMARK H PARENT 14 18 16 20 18 22 9 24 1 26 5 28
REMARK Flexibility Score: inf
ROOT
ATOM      1  C   UNL     1      10.515 -16.870 -23.250  1.00  0.00     0.402 A 
ATOM      2  O   UNL     1      11.167 -16.543 -24.362  1.00  0.00    -0.202 OA
ATOM      3  C   UNL     1      11.253 -17.343 -25.420  1.00  0.00     0.368 A 
ATOM      4  C   UNL     1      11.963 -16.912 -26.543  1.00  0.00     0.162 A 
ATOM      5  C   UNL     1      12.074 -17.732 -27.666  1.00  0.00     0.128 A 
ATOM      6  C   UNL     1      11.470 -18.995 -27.668  1.00  0.00     0.093 A 
ATOM      7  C   UNL     1      10.753 -19.450 -26.555  1.00  0.00     0.136 A 
ATOM      8  C   UNL     1      10.637 -18.618 -25.412  1.00  0.00     0.125 A 
ATOM      9  C   UNL     1       9.926 -18.986 -24.257  1.00  0.00     0.078 A 
ATOM     10  C   UNL     1       9.851 -18.109 -23.171  1.00  0.00     0.223 A 
ENDROOT
BRANCH   1  11
ATOM     11  C   UNL     1      10.499 -15.896 -22.135  1.00  0.00     0.091 A 
ATOM     12  C   UNL     1      10.913 -16.256 -20.841  1.00  0.00     0.068 A 
ATOM     13  C   UNL     1      10.912 -15.314 -19.804  1.00  0.00     0.162 A 
ATOM     14  C   UNL     1      10.116 -14.569 -22.383  1.00  0.00     0.068 A 
ATOM     15  C   UNL     1      10.505 -13.993 -20.057  1.00  0.00     0.200 A 
ATOM     16  C   UNL     1      10.111 -13.623 -21.354  1.00  0.00     0.162 A 
BRANCH  13  17
ATOM     17  O   UNL     1      11.320 -15.685 -18.523  1.00  0.00    -0.504 OA
ATOM     18  H   UNL     1      11.907 -16.495 -18.366  1.00  0.00     0.293 HD
ENDBRANCH  13  17
BRANCH  15  19
ATOM     19  O   UNL     1      10.494 -13.043 -19.035  1.00  0.00    -0.502 OA
ATOM     20  H   UNL     1       9.925 -13.150 -18.204  1.00  0.00     0.293 HD
ENDBRANCH  15  19
BRANCH  16  21
ATOM     21  O   UNL     1       9.709 -12.317 -21.640  1.00  0.00    -0.504 OA
ATOM     22  H   UNL     1       9.890 -11.882 -22.536  1.00  0.00     0.293 HD
ENDBRANCH  16  21
ENDBRANCH   1  11
BRANCH  10  23
ATOM     23  O   UNL     1       9.105 -18.453 -22.043  1.00  0.00    -0.500 OA
ATOM     24  H   UNL     1       8.112 -18.262 -21.984  1.00  0.00     0.294 HD
ENDBRANCH  10  23
BRANCH   5  25
ATOM     25  O   UNL     1      12.786 -17.284 -28.776  1.00  0.00    -0.507 OA
ATOM     26  H   UNL     1      12.612 -16.375 -29.186  1.00  0.00     0.293 HD
ENDBRANCH   5  25
BRANCH   7  27
ATOM     27  O   UNL     1      10.181 -20.724 -26.635  1.00  0.00    -0.507 OA
ATOM     28  H   UNL     1      10.702 -21.574 -26.799  1.00  0.00     0.293 HD
ENDBRANCH   7  27
TORSDOF 7
ENDMDL
MODEL 3
REMARK VINA RESULT:    -7.039      3.890      6.433
REMARK INTER + INTRA:          -8.327
REMARK INTER:                  -8.234
REMARK INTRA:                  -0.093
REMARK UNBOUND:                 0.358
REMARK SMILES Oc1cc(O)c2cc(O)c(-c3cc(O)c(O)c(O)c3)[o+]c2c1
REMARK SMILES IDX 10 1 20 2 21 3 22 4 2 5 3 6 4 7 6 8 7 9 8 10 11 11 12 12
REMARK SMILES IDX 13 13 19 14 15 15 17 16 14 17 16 19 18 21 9 23 1 25 5 27
REMARK H PARENT 14 18 16 20 18 22 9 24 1 26 5 28
REMARK Flexibility Score: inf
ROOT
ATOM      1  C   UNL     1      10.501 -16.833 -23.236  1.00  0.00     0.402 A 
ATOM      2  O   UNL     1      11.217 -16.651 -24.342  1.00  0.00    -0.202 OA
ATOM      3  C   UNL     1      11.249 -17.526 -25.343  1.00  0.00     0.368 A 
ATOM      4  C   UNL     1      12.034 -17.247 -26.465  1.00  0.00     0.162 A 
ATOM      5  C   UNL     1      12.090 -18.149 -27.528  1.00  0.00     0.128 A 
ATOM      6  C   UNL     1      11.357 -19.339 -27.471  1.00  0.00     0.093 A 
ATOM      7  C   UNL     1      10.563 -19.641 -26.358  1.00  0.00     0.136 A 
ATOM      8  C   UNL     1      10.501 -18.726 -25.276  1.00  0.00     0.125 A 
ATOM      9  C   UNL     1       9.722 -18.940 -24.127  1.00  0.00     0.078 A 
ATOM     10  C   UNL     1       9.708 -17.988 -23.102  1.00  0.00     0.223 A 
ENDROOT
BRANCH   1  11
ATOM     11  C   UNL     1      10.555 -15.789 -22.187  1.00  0.00     0.091 A 
ATOM     12  C   UNL     1      10.252 -14.447 -22.472  1.00  0.00     0.068 A 
ATOM     13  C   UNL     1      10.287 -13.477 -21.461  1.00  0.00     0.162 A 
ATOM     14  C   UNL     1      10.862 -16.153 -20.867  1.00  0.00     0.068 A 
ATOM     15  C   UNL     1      10.617 -13.848 -20.146  1.00  0.00     0.200 A 
ATOM     16  C   UNL     1      10.901 -15.193 -19.852  1.00  0.00     0.162 A 
BRANCH  13  17
ATOM     17  O   UNL     1       9.989 -12.148 -21.758  1.00  0.00    -0.504 OA
ATOM     18  H   UNL     1      10.476 -11.645 -22.490  1.00  0.00     0.293 HD
ENDBRANCH  13  17
BRANCH  15  19
ATOM     19  O   UNL     1      10.662 -12.895 -19.128  1.00  0.00    -0.502 OA
ATOM     20  H   UNL     1      10.075 -12.070 -19.134  1.00  0.00     0.293 HD
ENDBRANCH  15  19
BRANCH  16  21
ATOM     21  O   UNL     1      11.225 -15.593 -18.555  1.00  0.00    -0.504 OA
ATOM     22  H   UNL     1      11.140 -14.970 -17.762  1.00  0.00     0.293 HD
ENDBRANCH  16  21
ENDBRANCH   1  11
BRANCH  10  23
ATOM     23  O   UNL     1       8.897 -18.177 -21.983  1.00  0.00    -0.500 OA
ATOM     24  H   UNL     1       8.993 -18.990 -21.388  1.00  0.00     0.294 HD
ENDBRANCH  10  23
BRANCH   5  25
ATOM     25  O   UNL     1      12.879 -17.853 -28.638  1.00  0.00    -0.507 OA
ATOM     26  H   UNL     1      13.228 -16.917 -28.806  1.00  0.00     0.293 HD
ENDBRANCH   5  25
BRANCH   7  27
ATOM     27  O   UNL     1       9.862 -20.852 -26.377  1.00  0.00    -0.507 OA
ATOM     28  H   UNL     1      10.179 -21.701 -25.931  1.00  0.00     0.293 HD
ENDBRANCH   7  27
TORSDOF 7
ENDMDL
MODEL 4
REMARK VINA RESULT:    -6.835      4.117      7.147
REMARK INTER + INTRA:          -8.076
REMARK INTER:                  -7.696
REMARK INTRA:                  -0.380
REMARK UNBOUND:                 0.358
REMARK SMILES Oc1cc(O)c2cc(O)c(-c3cc(O)c(O)c(O)c3)[o+]c2c1
REMARK SMILES IDX 10 1 20 2 21 3 22 4 2 5 3 6 4 7 6 8 7 9 8 10 11 11 12 12
REMARK SMILES IDX 13 13 19 14 15 15 17 16 14 17 16 19 18 21 9 23 1 25 5 27
REMARK H PARENT 14 18 16 20 18 22 9 24 1 26 5 28
REMARK Flexibility Score: inf
ROOT
ATOM      1  C   UNL     1      10.077 -16.748 -24.485  1.00  0.00     0.402 A 
ATOM      2  O   UNL     1      10.425 -16.920 -23.213  1.00  0.00    -0.202 OA
ATOM      3  C   UNL     1      10.372 -15.951 -22.305  1.00  0.00     0.368 A 
ATOM      4  C   UNL     1      10.761 -16.228 -20.992  1.00  0.00     0.162 A 
ATOM      5  C   UNL     1      10.720 -15.229 -20.018  1.00  0.00     0.128 A 
ATOM      6  C   UNL     1      10.287 -13.943 -20.358  1.00  0.00     0.093 A 
ATOM      7  C   UNL     1       9.892 -13.640 -21.668  1.00  0.00     0.136 A 
ATOM      8  C   UNL     1       9.931 -14.653 -22.659  1.00  0.00     0.125 A 
ATOM      9  C   UNL     1       9.542 -14.444 -23.993  1.00  0.00     0.078 A 
ATOM     10  C   UNL     1       9.602 -15.495 -24.914  1.00  0.00     0.223 A 
ENDROOT
BRANCH   1  11
ATOM     11  C   UNL     1      10.190 -17.904 -25.404  1.00  0.00     0.091 A 
ATOM     12  C   UNL     1       9.112 -18.780 -25.615  1.00  0.00     0.068 A 
ATOM     13  C   UNL     1       9.230 -19.855 -26.506  1.00  0.00     0.162 A 
ATOM     14  C   UNL     1      11.378 -18.100 -26.124  1.00  0.00     0.068 A 
ATOM     15  C   UNL     1      10.432 -20.056 -27.206  1.00  0.00     0.200 A 
ATOM     16  C   UNL     1      11.506 -19.171 -27.014  1.00  0.00     0.162 A 
BRANCH  13  17
ATOM     17  O   UNL     1       8.155 -20.721 -26.703  1.00  0.00    -0.504 OA
ATOM     18  H   UNL     1       7.202 -20.437 -26.510  1.00  0.00     0.293 HD
ENDBRANCH  13  17
BRANCH  15  19
ATOM     19  O   UNL     1      10.569 -21.125 -28.093  1.00  0.00    -0.502 OA
ATOM     20  H   UNL     1       9.906 -21.889 -28.125  1.00  0.00     0.293 HD
ENDBRANCH  15  19
BRANCH  16  21
ATOM     21  O   UNL     1      12.710 -19.339 -27.700  1.00  0.00    -0.504 OA
ATOM     22  H   UNL     1      12.774 -19.887 -28.548  1.00  0.00     0.293 HD
ENDBRANCH  16  21
ENDBRANCH   1  11
BRANCH  10  23
ATOM     23  O   UNL     1       9.169 -15.301 -26.226  1.00  0.00    -0.500 OA
ATOM     24  H   UNL     1       8.800 -16.063 -26.782  1.00  0.00     0.294 HD
ENDBRANCH  10  23
BRANCH   5  25
ATOM     25  O   UNL     1      11.111 -15.525 -18.714  1.00  0.00    -0.507 OA
ATOM     26  H   UNL     1      10.714 -15.039 -17.919  1.00  0.00     0.293 HD
ENDBRANCH   5  25
BRANCH   7  27
ATOM     27  O   UNL     1       9.475 -12.330 -21.927  1.00  0.00    -0.507 OA
ATOM     28  H   UNL     1       9.568 -11.869 -22.821  1.00  0.00     0.293 HD
ENDBRANCH   7  27
TORSDOF 7
ENDMDL
MODEL 5
REMARK VINA RESULT:    -6.808      3.216      7.087
REMARK INTER + INTRA:          -8.042
REMARK INTER:                  -7.757
REMARK INTRA:                  -0.285
REMARK UNBOUND:                 0.358
REMARK SMILES Oc1cc(O)c2cc(O)c(-c3cc(O)c(O)c(O)c3)[o+]c2c1
REMARK SMILES IDX 10 1 20 2 21 3 22 4 2 5 3 6 4 7 6 8 7 9 8 10 11 11 12 12
REMARK SMILES IDX 13 13 19 14 15 15 17 16 14 17 16 19 18 21 9 23 1 25 5 27
REMARK H PARENT 14 18 16 20 18 22 9 24 1 26 5 28
REMARK Flexibility Score: inf
ROOT
ATOM      1  C   UNL     1       9.798 -15.277 -23.660  1.00  0.00     0.402 A 
ATOM      2  O   UNL     1      10.330 -15.996 -24.644  1.00  0.00    -0.202 OA
ATOM      3  C   UNL     1      10.357 -17.324 -24.646  1.00  0.00     0.368 A 
ATOM      4  C   UNL     1      10.942 -17.992 -25.725  1.00  0.00     0.162 A 
ATOM      5  C   UNL     1      10.988 -19.386 -25.752  1.00  0.00     0.128 A 
ATOM      6  C   UNL     1      10.447 -20.121 -24.691  1.00  0.00     0.093 A 
ATOM      7  C   UNL     1       9.856 -19.476 -23.597  1.00  0.00     0.136 A 
ATOM      8  C   UNL     1       9.805 -18.058 -23.568  1.00  0.00     0.125 A 
ATOM      9  C   UNL     1       9.221 -17.328 -22.520  1.00  0.00     0.078 A 
ATOM     10  C   UNL     1       9.204 -15.930 -22.564  1.00  0.00     0.223 A 
ENDROOT
BRANCH   1  11
ATOM     11  C   UNL     1       9.837 -13.801 -23.770  1.00  0.00     0.091 A 
ATOM     12  C   UNL     1       9.026 -13.112 -24.687  1.00  0.00     0.068 A 
ATOM     13  C   UNL     1       9.061 -11.713 -24.761  1.00  0.00     0.162 A 
ATOM     14  C   UNL     1      10.661 -13.066 -22.903  1.00  0.00     0.068 A 
ATOM     15  C   UNL     1       9.906 -10.987 -23.903  1.00  0.00     0.200 A 
ATOM     16  C   UNL     1      10.704 -11.671 -22.970  1.00  0.00     0.162 A 
BRANCH  13  17
ATOM     17  O   UNL     1       8.255 -11.041 -25.679  1.00  0.00    -0.504 OA
ATOM     18  H   UNL     1       7.288 -10.820 -25.474  1.00  0.00     0.293 HD
ENDBRANCH  13  17
BRANCH  15  19
ATOM     19  O   UNL     1       9.957  -9.594 -23.966  1.00  0.00    -0.502 OA
ATOM     20  H   UNL     1       9.558  -9.073 -24.737  1.00  0.00     0.293 HD
ENDBRANCH  15  19
BRANCH  16  21
ATOM     21  O   UNL     1      11.547 -10.979 -22.099  1.00  0.00    -0.504 OA
ATOM     22  H   UNL     1      11.765  -9.998 -22.227  1.00  0.00     0.293 HD
ENDBRANCH  16  21
ENDBRANCH   1  11
BRANCH  10  23
ATOM     23  O   UNL     1       8.580 -15.206 -21.548  1.00  0.00    -0.500 OA
ATOM     24  H   UNL     1       7.914 -15.638 -20.919  1.00  0.00     0.294 HD
ENDBRANCH  10  23
BRANCH   5  25
ATOM     25  O   UNL     1      11.575 -20.033 -26.837  1.00  0.00    -0.507 OA
ATOM     26  H   UNL     1      11.281 -20.959 -27.124  1.00  0.00     0.293 HD
ENDBRANCH   5  25
BRANCH   7  27
ATOM     27  O   UNL     1       9.341 -20.281 -22.577  1.00  0.00    -0.507 OA
ATOM     28  H   UNL     1       9.887 -20.938 -22.038  1.00  0.00     0.293 HD
ENDBRANCH   7  27
TORSDOF 7
ENDMDL
MODEL 6
REMARK VINA RESULT:    -6.610      2.084      7.317
REMARK INTER + INTRA:          -7.798
REMARK INTER:                  -7.958
REMARK INTRA:                   0.160
REMARK UNBOUND:                 0.358
REMARK SMILES Oc1cc(O)c2cc(O)c(-c3cc(O)c(O)c(O)c3)[o+]c2c1
REMARK SMILES IDX 10 1 20 2 21 3 22 4 2 5 3 6 4 7 6 8 7 9 8 10 11 11 12 12
REMARK SMILES IDX 13 13 19 14 15 15 17 16 14 17 16 19 18 21 9 23 1 25 5 27
REMARK H PARENT 14 18 16 20 18 22 9 24 1 26 5 28
REMARK Flexibility Score: inf
ROOT
ATOM      1  C   UNL     1       9.785 -13.401 -23.914  1.00  0.00     0.402 A 
ATOM      2  O   UNL     1      10.144 -14.430 -24.677  1.00  0.00    -0.202 OA
ATOM      3  C   UNL     1      10.538 -15.600 -24.185  1.00  0.00     0.368 A 
ATOM      4  C   UNL     1      10.899 -16.622 -25.068  1.00  0.00     0.162 A 
ATOM      5  C   UNL     1      11.321 -17.859 -24.580  1.00  0.00     0.128 A 
ATOM      6  C   UNL     1      11.384 -18.079 -23.200  1.00  0.00     0.093 A 
ATOM      7  C   UNL     1      11.028 -17.071 -22.295  1.00  0.00     0.136 A 
ATOM      8  C   UNL     1      10.596 -15.812 -22.787  1.00  0.00     0.125 A 
ATOM      9  C   UNL     1      10.208 -14.749 -21.954  1.00  0.00     0.078 A 
ATOM     10  C   UNL     1       9.789 -13.538 -22.513  1.00  0.00     0.223 A 
ENDROOT
BRANCH   1  11
ATOM     11  C   UNL     1       9.373 -12.145 -24.581  1.00  0.00     0.091 A 
ATOM     12  C   UNL     1       9.577 -10.893 -23.976  1.00  0.00     0.068 A 
ATOM     13  C   UNL     1       9.201  -9.713 -24.633  1.00  0.00     0.162 A 
ATOM     14  C   UNL     1       8.818 -12.197 -25.869  1.00  0.00     0.068 A 
ATOM     15  C   UNL     1       8.625  -9.777 -25.913  1.00  0.00     0.200 A 
ATOM     16  C   UNL     1       8.439 -11.026 -26.531  1.00  0.00     0.162 A 
BRANCH  13  17
ATOM     17  O   UNL     1       9.404  -8.478 -24.020  1.00  0.00    -0.504 OA
ATOM     18  H   UNL     1       9.566  -8.399 -23.023  1.00  0.00     0.293 HD
ENDBRANCH  13  17
BRANCH  15  19
ATOM     19  O   UNL     1       8.241  -8.613 -26.580  1.00  0.00    -0.502 OA
ATOM     20  H   UNL     1       7.582  -8.624 -27.349  1.00  0.00     0.293 HD
ENDBRANCH  15  19
BRANCH  16  21
ATOM     21  O   UNL     1       7.877 -11.122 -27.805  1.00  0.00    -0.504 OA
ATOM     22  H   UNL     1       7.451 -11.977 -28.142  1.00  0.00     0.293 HD
ENDBRANCH  16  21
ENDBRANCH   1  11
BRANCH  10  23
ATOM     23  O   UNL     1       9.356 -12.499 -21.689  1.00  0.00    -0.500 OA
ATOM     24  H   UNL     1       9.598 -11.534 -21.878  1.00  0.00     0.294 HD
ENDBRANCH  10  23
BRANCH   5  25
ATOM     25  O   UNL     1      11.676 -18.865 -25.476  1.00  0.00    -0.507 OA
ATOM     26  H   UNL     1      12.246 -18.673 -26.290  1.00  0.00     0.293 HD
ENDBRANCH   5  25
BRANCH   7  27
ATOM     27  O   UNL     1      11.121 -17.369 -20.931  1.00  0.00    -0.507 OA
ATOM     28  H   UNL     1      10.630 -18.126 -20.478  1.00  0.00     0.293 HD
ENDBRANCH   7  27
TORSDOF 7
ENDMDL
MODEL 7
REMARK VINA RESULT:    -6.602      4.637      7.414
REMARK INTER + INTRA:          -7.788
REMARK INTER:                  -7.754
REMARK INTRA:                  -0.033
REMARK UNBOUND:                 0.358
REMARK SMILES Oc1cc(O)c2cc(O)c(-c3cc(O)c(O)c(O)c3)[o+]c2c1
REMARK SMILES IDX 10 1 20 2 21 3 22 4 2 5 3 6 4 7 6 8 7 9 8 10 11 11 12 12
REMARK SMILES IDX 13 13 19 14 15 15 17 16 14 17 16 19 18 21 9 23 1 25 5 27
REMARK H PARENT 14 18 16 20 18 22 9 24 1 26 5 28
REMARK Flexibility Score: inf
ROOT
ATOM      1  C   UNL     1      11.378 -17.194 -24.787  1.00  0.00     0.402 A 
ATOM      2  O   UNL     1      10.993 -15.922 -24.731  1.00  0.00    -0.202 OA
ATOM      3  C   UNL     1      10.707 -15.295 -23.595  1.00  0.00     0.368 A 
ATOM      4  C   UNL     1      10.307 -13.957 -23.638  1.00  0.00     0.162 A 
ATOM      5  C   UNL     1       9.998 -13.275 -22.461  1.00  0.00     0.128 A 
ATOM      6  C   UNL     1      10.087 -13.934 -21.230  1.00  0.00     0.093 A 
ATOM      7  C   UNL     1      10.485 -15.274 -21.160  1.00  0.00     0.136 A 
ATOM      8  C   UNL     1      10.803 -15.971 -22.354  1.00  0.00     0.125 A 
ATOM      9  C   UNL     1      11.224 -17.311 -22.378  1.00  0.00     0.078 A 
ATOM     10  C   UNL     1      11.525 -17.929 -23.596  1.00  0.00     0.223 A 
ENDROOT
BRANCH   1  11
ATOM     11  C   UNL     1      11.658 -17.783 -26.116  1.00  0.00     0.091 A 
ATOM     12  C   UNL     1      11.180 -19.056 -26.469  1.00  0.00     0.068 A 
ATOM     13  C   UNL     1      11.436 -19.588 -27.740  1.00  0.00     0.162 A 
ATOM     14  C   UNL     1      12.370 -17.035 -27.067  1.00  0.00     0.068 A 
ATOM     15  C   UNL     1      12.168 -18.840 -28.678  1.00  0.00     0.200 A 
ATOM     16  C   UNL     1      12.631 -17.558 -28.337  1.00  0.00     0.162 A 
BRANCH  13  17
ATOM     17  O   UNL     1      10.960 -20.855 -28.076  1.00  0.00    -0.504 OA
ATOM     18  H   UNL     1      10.000 -21.003 -28.362  1.00  0.00     0.293 HD
ENDBRANCH  13  17
BRANCH  15  19
ATOM     19  O   UNL     1      12.437 -19.356 -29.946  1.00  0.00    -0.502 OA
ATOM     20  H   UNL     1      13.369 -19.634 -30.230  1.00  0.00     0.293 HD
ENDBRANCH  15  19
BRANCH  16  21
ATOM     21  O   UNL     1      13.354 -16.787 -29.248  1.00  0.00    -0.504 OA
ATOM     22  H   UNL     1      14.295 -17.031 -29.533  1.00  0.00     0.293 HD
ENDBRANCH  16  21
ENDBRANCH   1  11
BRANCH  10  23
ATOM     23  O   UNL     1      11.989 -19.245 -23.617  1.00  0.00    -0.500 OA
ATOM     24  H   UNL     1      12.828 -19.504 -24.122  1.00  0.00     0.294 HD
ENDBRANCH  10  23
BRANCH   5  25
ATOM     25  O   UNL     1       9.601 -11.940 -22.525  1.00  0.00    -0.507 OA
ATOM     26  H   UNL     1       8.673 -11.678 -22.834  1.00  0.00     0.293 HD
ENDBRANCH   5  25
BRANCH   7  27
ATOM     27  O   UNL     1      10.548 -15.862 -19.892  1.00  0.00    -0.507 OA
ATOM     28  H   UNL     1      11.044 -15.469 -19.105  1.00  0.00     0.293 HD
ENDBRANCH   7  27
TORSDOF 7
ENDMDL
MODEL 8
REMARK VINA RESULT:    -6.453      2.392      4.027
REMARK INTER + INTRA:          -7.604
REMARK INTER:                  -7.330
REMARK INTRA:                  -0.273
REMARK UNBOUND:                 0.358
REMARK SMILES Oc1cc(O)c2cc(O)c(-c3cc(O)c(O)c(O)c3)[o+]c2c1
REMARK SMILES IDX 10 1 20 2 21 3 22 4 2 5 3 6 4 7 6 8 7 9 8 10 11 11 12 12
REMARK SMILES IDX 13 13 19 14 15 15 17 16 14 17 16 19 18 21 9 23 1 25 5 27
REMARK H PARENT 14 18 16 20 18 22 9 24 1 26 5 28
REMARK Flexibility Score: inf
ROOT
ATOM      1  C   UNL     1      10.158 -14.742 -23.664  1.00  0.00     0.402 A 
ATOM      2  O   UNL     1       9.497 -14.210 -24.689  1.00  0.00    -0.202 OA
ATOM      3  C   UNL     1       9.420 -12.902 -24.908  1.00  0.00     0.368 A 
ATOM      4  C   UNL     1       8.699 -12.437 -26.011  1.00  0.00     0.162 A 
ATOM      5  C   UNL     1       8.599 -11.069 -26.263  1.00  0.00     0.128 A 
ATOM      6  C   UNL     1       9.223 -10.155 -25.406  1.00  0.00     0.093 A 
ATOM      7  C   UNL     1       9.951 -10.595 -24.294  1.00  0.00     0.136 A 
ATOM      8  C   UNL     1      10.057 -11.986 -24.036  1.00  0.00     0.125 A 
ATOM      9  C   UNL     1      10.777 -12.518 -22.952  1.00  0.00     0.078 A 
ATOM     10  C   UNL     1      10.841 -13.902 -22.765  1.00  0.00     0.223 A 
ENDROOT
BRANCH   1  11
ATOM     11  C   UNL     1      10.161 -16.216 -23.522  1.00  0.00     0.091 A 
ATOM     12  C   UNL     1      10.872 -17.036 -24.414  1.00  0.00     0.068 A 
ATOM     13  C   UNL     1      10.882 -18.428 -24.250  1.00  0.00     0.162 A 
ATOM     14  C   UNL     1       9.487 -16.807 -22.443  1.00  0.00     0.068 A 
ATOM     15  C   UNL     1      10.185 -19.012 -23.179  1.00  0.00     0.200 A 
ATOM     16  C   UNL     1       9.490 -18.194 -22.272  1.00  0.00     0.162 A 
BRANCH  13  17
ATOM     17  O   UNL     1      11.587 -19.232 -25.145  1.00  0.00    -0.504 OA
ATOM     18  H   UNL     1      11.114 -19.882 -25.762  1.00  0.00     0.293 HD
ENDBRANCH  13  17
BRANCH  15  19
ATOM     19  O   UNL     1      10.180 -20.397 -23.003  1.00  0.00    -0.502 OA
ATOM     20  H   UNL     1       9.519 -20.999 -23.479  1.00  0.00     0.293 HD
ENDBRANCH  15  19
BRANCH  16  21
ATOM     21  O   UNL     1       8.794 -18.743 -21.194  1.00  0.00    -0.504 OA
ATOM     22  H   UNL     1       8.267 -18.171 -20.545  1.00  0.00     0.293 HD
ENDBRANCH  16  21
ENDBRANCH   1  11
BRANCH  10  23
ATOM     23  O   UNL     1      11.597 -14.433 -21.719  1.00  0.00    -0.500 OA
ATOM     24  H   UNL     1      12.474 -14.015 -21.432  1.00  0.00     0.294 HD
ENDBRANCH  10  23
BRANCH   5  25
ATOM     25  O   UNL     1       7.876 -10.625 -27.368  1.00  0.00    -0.507 OA
ATOM     26  H   UNL     1       8.266  -9.960 -28.024  1.00  0.00     0.293 HD
ENDBRANCH   5  25
BRANCH   7  27
ATOM     27  O   UNL     1      10.543  -9.619 -23.485  1.00  0.00    -0.507 OA
ATOM     28  H   UNL     1      11.101  -8.852 -23.832  1.00  0.00     0.293 HD
ENDBRANCH   7  27
TORSDOF 7
ENDMDL
MODEL 9
REMARK VINA RESULT:    -6.308      3.998      6.060
REMARK INTER + INTRA:          -7.425
REMARK INTER:                  -7.152
REMARK INTRA:                  -0.273
REMARK UNBOUND:                 0.358
REMARK SMILES Oc1cc(O)c2cc(O)c(-c3cc(O)c(O)c(O)c3)[o+]c2c1
REMARK SMILES IDX 10 1 20 2 21 3 22 4 2 5 3 6 4 7 6 8 7 9 8 10 11 11 12 12
REMARK SMILES IDX 13 13 19 14 15 15 17 16 14 17 16 19 18 21 9 23 1 25 5 27
REMARK H PARENT 14 18 16 20 18 22 9 24 1 26 5 28
REMARK Flexibility Score: inf
ROOT
ATOM      1  C   UNL     1      10.527 -16.099 -24.820  1.00  0.00     0.402 A 
ATOM      2  O   UNL     1       9.649 -16.092 -25.819  1.00  0.00    -0.202 OA
ATOM      3  C   UNL     1       9.757 -16.870 -26.892  1.00  0.00     0.368 A 
ATOM      4  C   UNL     1       8.785 -16.790 -27.892  1.00  0.00     0.162 A 
ATOM      5  C   UNL     1       8.875 -17.592 -29.030  1.00  0.00     0.128 A 
ATOM      6  C   UNL     1       9.945 -18.482 -29.172  1.00  0.00     0.093 A 
ATOM      7  C   UNL     1      10.933 -18.582 -28.183  1.00  0.00     0.136 A 
ATOM      8  C   UNL     1      10.843 -17.769 -27.024  1.00  0.00     0.125 A 
ATOM      9  C   UNL     1      11.780 -17.812 -25.977  1.00  0.00     0.078 A 
ATOM     10  C   UNL     1      11.621 -16.983 -24.861  1.00  0.00     0.223 A 
ENDROOT
BRANCH   1  11
ATOM     11  C   UNL     1      10.302 -15.177 -23.684  1.00  0.00     0.091 A 
ATOM     12  C   UNL     1       9.930 -15.654 -22.416  1.00  0.00     0.068 A 
ATOM     13  C   UNL     1       9.744 -14.768 -21.346  1.00  0.00     0.162 A 
ATOM     14  C   UNL     1      10.516 -13.801 -23.859  1.00  0.00     0.068 A 
ATOM     15  C   UNL     1       9.940 -13.389 -21.537  1.00  0.00     0.200 A 
ATOM     16  C   UNL     1      10.331 -12.909 -22.798  1.00  0.00     0.162 A 
BRANCH  13  17
ATOM     17  O   UNL     1       9.370 -15.253 -20.093  1.00  0.00    -0.504 OA
ATOM     18  H   UNL     1       9.180 -14.630 -19.317  1.00  0.00     0.293 HD
ENDBRANCH  13  17
BRANCH  15  19
ATOM     19  O   UNL     1       9.754 -12.491 -20.485  1.00  0.00    -0.502 OA
ATOM     20  H   UNL     1      10.529 -12.112 -19.955  1.00  0.00     0.293 HD
ENDBRANCH  15  19
BRANCH  16  21
ATOM     21  O   UNL     1      10.541 -11.547 -23.017  1.00  0.00    -0.504 OA
ATOM     22  H   UNL     1      10.763 -10.908 -22.264  1.00  0.00     0.293 HD
ENDBRANCH  16  21
ENDBRANCH   1  11
BRANCH  10  23
ATOM     23  O   UNL     1      12.523 -17.060 -23.800  1.00  0.00    -0.500 OA
ATOM     24  H   UNL     1      12.250 -17.426 -22.896  1.00  0.00     0.294 HD
ENDBRANCH  10  23
BRANCH   5  25
ATOM     25  O   UNL     1       7.896 -17.497 -30.016  1.00  0.00    -0.507 OA
ATOM     26  H   UNL     1       7.881 -16.728 -30.676  1.00  0.00     0.293 HD
ENDBRANCH   5  25
BRANCH   7  27
ATOM     27  O   UNL     1      11.971 -19.493 -28.401  1.00  0.00    -0.507 OA
ATOM     28  H   UNL     1      12.774 -19.314 -28.987  1.00  0.00     0.293 HD
ENDBRANCH   7  27
TORSDOF 7
ENDMDL
