MODEL 1
REMARK VINA RESULT:    -7.148      0.000      0.000
REMARK INTER + INTRA:          -8.697
REMARK INTER:                  -8.402
REMARK INTRA:                  -0.295
REMARK UNBOUND:                -0.295
REMARK SMILES O=c1c(O)c(-c2ccc(O)cc2)oc2cc(O)cc(O)c12
REMARK SMILES IDX 5 1 3 2 2 3 1 4 21 5 19 6 18 7 16 8 15 9 14 10 13 11 6 12
REMARK SMILES IDX 7 13 8 14 9 15 12 16 11 17 10 18 4 20 20 22 17 24
REMARK H PARENT 10 19 4 21 20 23 17 25
REMARK Flexibility Score: inf
ROOT
ATOM      1  C   UNL     1      24.011 -25.666  27.662  1.00  0.00     0.180 A 
ATOM      2  C   UNL     1      22.873 -25.636  26.832  1.00  0.00     0.208 A 
ATOM      3  C   UNL     1      22.899 -24.843  25.675  1.00  0.00     0.238 A 
ATOM      4  O   UNL     1      21.891 -24.817  24.919  1.00  0.00    -0.285 OA
ATOM      5  C   UNL     1      24.048 -24.080  25.379  1.00  0.00     0.111 A 
ATOM      6  C   UNL     1      24.153 -23.252  24.234  1.00  0.00     0.134 A 
ATOM      7  C   UNL     1      25.327 -22.517  24.013  1.00  0.00     0.093 A 
ATOM      8  C   UNL     1      26.396 -22.594  24.913  1.00  0.00     0.123 A 
ATOM      9  C   UNL     1      26.296 -23.408  26.042  1.00  0.00     0.094 A 
ATOM     10  C   UNL     1      25.136 -24.151  26.279  1.00  0.00     0.146 A 
ATOM     11  O   UNL     1      25.070 -24.922  27.358  1.00  0.00    -0.452 OA
ENDROOT
BRANCH   1  12
ATOM     12  C   UNL     1      24.068 -26.492  28.890  1.00  0.00     0.021 A 
ATOM     13  C   UNL     1      23.649 -25.942  30.113  1.00  0.00     0.016 A 
ATOM     14  C   UNL     1      23.715 -26.696  31.289  1.00  0.00     0.047 A 
ATOM     15  C   UNL     1      24.215 -28.004  31.259  1.00  0.00     0.115 A 
ATOM     16  C   UNL     1      24.588 -27.799  28.871  1.00  0.00     0.016 A 
ATOM     17  C   UNL     1      24.654 -28.551  30.048  1.00  0.00     0.047 A 
BRANCH  15  18
ATOM     18  O   UNL     1      24.286 -28.766  32.423  1.00  0.00    -0.508 OA
ATOM     19  H   UNL     1      24.198 -28.341  33.339  1.00  0.00     0.293 HD
ENDBRANCH  15  18
ENDBRANCH   1  12
BRANCH   2  20
ATOM     20  O   UNL     1      21.730 -26.362  27.176  1.00  0.00    -0.502 OA
ATOM     21  H   UNL     1      21.118 -26.770  26.480  1.00  0.00     0.293 HD
ENDBRANCH   2  20
BRANCH   6  22
ATOM     22  O   UNL     1      23.104 -23.155  23.319  1.00  0.00    -0.507 OA
ATOM     23  H   UNL     1      22.935 -22.307  22.791  1.00  0.00     0.293 HD
ENDBRANCH   6  22
BRANCH   8  24
ATOM     24  O   UNL     1      27.562 -21.862  24.696  1.00  0.00    -0.508 OA
ATOM     25  H   UNL     1      28.069 -21.434  25.462  1.00  0.00     0.293 HD
ENDBRANCH   8  24
TORSDOF 5
ENDMDL
MODEL 2
REMARK VINA RESULT:    -7.028      1.932      6.669
REMARK INTER + INTRA:          -8.555
REMARK INTER:                  -8.262
REMARK INTRA:                  -0.293
REMARK UNBOUND:                -0.295
REMARK SMILES O=c1c(O)c(-c2ccc(O)cc2)oc2cc(O)cc(O)c12
REMARK SMILES IDX 5 1 3 2 2 3 1 4 21 5 19 6 18 7 16 8 15 9 14 10 13 11 6 12
REMARK SMILES IDX 7 13 8 14 9 15 12 16 11 17 10 18 4 20 20 22 17 24
REMARK H PARENT 10 19 4 21 20 23 17 25
REMARK Flexibility Score: inf
ROOT
ATOM      1  C   UNL     1      25.777 -23.778  24.896  1.00  0.00     0.180 A 
ATOM      2  C   UNL     1      24.619 -24.060  24.145  1.00  0.00     0.208 A 
ATOM      3  C   UNL     1      23.523 -24.655  24.787  1.00  0.00     0.238 A 
ATOM      4  O   UNL     1      22.477 -24.902  24.128  1.00  0.00    -0.285 OA
ATOM      5  C   UNL     1      23.610 -24.977  26.158  1.00  0.00     0.111 A 
ATOM      6  C   UNL     1      22.551 -25.583  26.878  1.00  0.00     0.134 A 
ATOM      7  C   UNL     1      22.718 -25.881  28.239  1.00  0.00     0.093 A 
ATOM      8  C   UNL     1      23.920 -25.586  28.891  1.00  0.00     0.123 A 
ATOM      9  C   UNL     1      24.965 -24.989  28.184  1.00  0.00     0.094 A 
ATOM     10  C   UNL     1      24.819 -24.683  26.828  1.00  0.00     0.146 A 
ATOM     11  O   UNL     1      25.828 -24.110  26.182  1.00  0.00    -0.452 OA
ENDROOT
BRANCH   1  12
ATOM     12  C   UNL     1      26.968 -23.134  24.294  1.00  0.00     0.021 A 
ATOM     13  C   UNL     1      27.970 -23.933  23.720  1.00  0.00     0.016 A 
ATOM     14  C   UNL     1      29.113 -23.348  23.167  1.00  0.00     0.047 A 
ATOM     15  C   UNL     1      29.275 -21.957  23.194  1.00  0.00     0.115 A 
ATOM     16  C   UNL     1      27.147 -21.739  24.337  1.00  0.00     0.016 A 
ATOM     17  C   UNL     1      28.291 -21.156  23.784  1.00  0.00     0.047 A 
BRANCH  15  18
ATOM     18  O   UNL     1      30.409 -21.362  22.646  1.00  0.00    -0.508 OA
ATOM     19  H   UNL     1      30.996 -21.853  21.982  1.00  0.00     0.293 HD
ENDBRANCH  15  18
ENDBRANCH   1  12
BRANCH   2  20
ATOM     20  O   UNL     1      24.578 -23.776  22.777  1.00  0.00    -0.502 OA
ATOM     21  H   UNL     1      23.840 -24.117  22.175  1.00  0.00     0.293 HD
ENDBRANCH   2  20
BRANCH   6  22
ATOM     22  O   UNL     1      21.341 -25.890  26.255  1.00  0.00    -0.507 OA
ATOM     23  H   UNL     1      21.307 -26.344  25.350  1.00  0.00     0.293 HD
ENDBRANCH   6  22
BRANCH   8  24
ATOM     24  O   UNL     1      24.087 -25.883  30.242  1.00  0.00    -0.508 OA
ATOM     25  H   UNL     1      24.793 -25.420  30.803  1.00  0.00     0.293 HD
ENDBRANCH   8  24
TORSDOF 5
ENDMDL
MODEL 3
REMARK VINA RESULT:    -7.016      3.794      6.738
REMARK INTER + INTRA:          -8.541
REMARK INTER:                  -8.252
REMARK INTRA:                  -0.289
REMARK UNBOUND:                -0.295
REMARK SMILES O=c1c(O)c(-c2ccc(O)cc2)oc2cc(O)cc(O)c12
REMARK SMILES IDX 5 1 3 2 2 3 1 4 21 5 19 6 18 7 16 8 15 9 14 10 13 11 6 12
REMARK SMILES IDX 7 13 8 14 9 15 12 16 11 17 10 18 4 20 20 22 17 24
REMARK H PARENT 10 19 4 21 20 23 17 25
REMARK Flexibility Score: inf
ROOT
ATOM      1  C   UNL     1      27.266 -22.472  24.082  1.00  0.00     0.180 A 
ATOM      2  C   UNL     1      28.110 -23.516  23.654  1.00  0.00     0.208 A 
ATOM      3  C   UNL     1      29.307 -23.194  22.997  1.00  0.00     0.238 A 
ATOM      4  O   UNL     1      30.076 -24.119  22.619  1.00  0.00    -0.285 OA
ATOM      5  C   UNL     1      29.630 -21.841  22.761  1.00  0.00     0.111 A 
ATOM      6  C   UNL     1      30.815 -21.432  22.101  1.00  0.00     0.134 A 
ATOM      7  C   UNL     1      31.060 -20.066  21.896  1.00  0.00     0.093 A 
ATOM      8  C   UNL     1      30.145 -19.104  22.336  1.00  0.00     0.123 A 
ATOM      9  C   UNL     1      28.976 -19.503  22.986  1.00  0.00     0.094 A 
ATOM     10  C   UNL     1      28.714 -20.859  23.202  1.00  0.00     0.146 A 
ATOM     11  O   UNL     1      27.596 -21.210  23.828  1.00  0.00    -0.452 OA
ENDROOT
BRANCH   1  12
ATOM     12  C   UNL     1      25.996 -22.732  24.798  1.00  0.00     0.021 A 
ATOM     13  C   UNL     1      24.782 -22.687  24.091  1.00  0.00     0.016 A 
ATOM     14  C   UNL     1      23.569 -22.905  24.751  1.00  0.00     0.047 A 
ATOM     15  C   UNL     1      23.553 -23.157  26.129  1.00  0.00     0.115 A 
ATOM     16  C   UNL     1      25.971 -22.963  26.186  1.00  0.00     0.016 A 
ATOM     17  C   UNL     1      24.756 -23.181  26.843  1.00  0.00     0.047 A 
BRANCH  15  18
ATOM     18  O   UNL     1      22.352 -23.376  26.799  1.00  0.00    -0.508 OA
ATOM     19  H   UNL     1      22.319 -23.886  27.674  1.00  0.00     0.293 HD
ENDBRANCH  15  18
ENDBRANCH   1  12
BRANCH   2  20
ATOM     20  O   UNL     1      27.743 -24.849  23.856  1.00  0.00    -0.502 OA
ATOM     21  H   UNL     1      28.410 -25.608  23.807  1.00  0.00     0.293 HD
ENDBRANCH   2  20
BRANCH   6  22
ATOM     22  O   UNL     1      31.746 -22.368  21.651  1.00  0.00    -0.507 OA
ATOM     23  H   UNL     1      31.650 -23.356  21.854  1.00  0.00     0.293 HD
ENDBRANCH   6  22
BRANCH   8  24
ATOM     24  O   UNL     1      30.386 -17.747  22.131  1.00  0.00    -0.508 OA
ATOM     25  H   UNL     1      30.679 -17.392  21.228  1.00  0.00     0.293 HD
ENDBRANCH   8  24
TORSDOF 5
ENDMDL
MODEL 4
REMARK VINA RESULT:    -6.839      4.117      6.568
REMARK INTER + INTRA:          -8.333
REMARK INTER:                  -8.109
REMARK INTRA:                  -0.224
REMARK UNBOUND:                -0.295
REMARK SMILES O=c1c(O)c(-c2ccc(O)cc2)oc2cc(O)cc(O)c12
REMARK SMILES IDX 5 1 3 2 2 3 1 4 21 5 19 6 18 7 16 8 15 9 14 10 13 11 6 12
REMARK SMILES IDX 7 13 8 14 9 15 12 16 11 17 10 18 4 20 20 22 17 24
REMARK H PARENT 10 19 4 21 20 23 17 25
REMARK Flexibility Score: inf
ROOT
ATOM      1  C   UNL     1      23.247 -22.625  26.278  1.00  0.00     0.180 A 
ATOM      2  C   UNL     1      23.964 -22.862  27.467  1.00  0.00     0.208 A 
ATOM      3  C   UNL     1      23.798 -21.981  28.545  1.00  0.00     0.238 A 
ATOM      4  O   UNL     1      24.426 -22.189  29.619  1.00  0.00    -0.285 OA
ATOM      5  C   UNL     1      22.938 -20.870  28.412  1.00  0.00     0.111 A 
ATOM      6  C   UNL     1      22.719 -19.932  29.451  1.00  0.00     0.134 A 
ATOM      7  C   UNL     1      21.855 -18.848  29.237  1.00  0.00     0.093 A 
ATOM      8  C   UNL     1      21.208 -18.684  28.007  1.00  0.00     0.123 A 
ATOM      9  C   UNL     1      21.421 -19.606  26.982  1.00  0.00     0.094 A 
ATOM     10  C   UNL     1      22.277 -20.695  27.175  1.00  0.00     0.146 A 
ATOM     11  O   UNL     1      22.458 -21.560  26.183  1.00  0.00    -0.452 OA
ENDROOT
BRANCH   1  12
ATOM     12  C   UNL     1      23.354 -23.521  25.102  1.00  0.00     0.021 A 
ATOM     13  C   UNL     1      23.988 -23.058  23.937  1.00  0.00     0.016 A 
ATOM     14  C   UNL     1      24.080 -23.878  22.808  1.00  0.00     0.047 A 
ATOM     15  C   UNL     1      23.527 -25.165  22.825  1.00  0.00     0.115 A 
ATOM     16  C   UNL     1      22.782 -24.806  25.106  1.00  0.00     0.016 A 
ATOM     17  C   UNL     1      22.875 -25.624  23.975  1.00  0.00     0.047 A 
BRANCH  15  18
ATOM     18  O   UNL     1      23.613 -25.991  21.707  1.00  0.00    -0.508 OA
ATOM     19  H   UNL     1      24.358 -26.670  21.607  1.00  0.00     0.293 HD
ENDBRANCH  15  18
ENDBRANCH   1  12
BRANCH   2  20
ATOM     20  O   UNL     1      24.847 -23.942  27.555  1.00  0.00    -0.502 OA
ATOM     21  H   UNL     1      25.297 -24.203  28.423  1.00  0.00     0.293 HD
ENDBRANCH   2  20
BRANCH   6  22
ATOM     22  O   UNL     1      23.351 -20.068  30.687  1.00  0.00    -0.507 OA
ATOM     23  H   UNL     1      23.051 -20.758  31.366  1.00  0.00     0.293 HD
ENDBRANCH   6  22
BRANCH   8  24
ATOM     24  O   UNL     1      20.351 -17.607  27.793  1.00  0.00    -0.508 OA
ATOM     25  H   UNL     1      19.373 -17.745  27.563  1.00  0.00     0.293 HD
ENDBRANCH   8  24
TORSDOF 5
ENDMDL
MODEL 5
REMARK VINA RESULT:    -6.779      4.863      6.471
REMARK INTER + INTRA:          -8.263
REMARK INTER:                  -7.972
REMARK INTRA:                  -0.290
REMARK UNBOUND:                -0.295
REMARK SMILES O=c1c(O)c(-c2ccc(O)cc2)oc2cc(O)cc(O)c12
REMARK SMILES IDX 5 1 3 2 2 3 1 4 21 5 19 6 18 7 16 8 15 9 14 10 13 11 6 12
REMARK SMILES IDX 7 13 8 14 9 15 12 16 11 17 10 18 4 20 20 22 17 24
REMARK H PARENT 10 19 4 21 20 23 17 25
REMARK Flexibility Score: inf
ROOT
ATOM      1  C   UNL     1      22.172 -22.089  26.858  1.00  0.00     0.180 A 
ATOM      2  C   UNL     1      22.327 -22.141  28.257  1.00  0.00     0.208 A 
ATOM      3  C   UNL     1      22.157 -20.965  29.002  1.00  0.00     0.238 A 
ATOM      4  O   UNL     1      22.282 -21.002  30.256  1.00  0.00    -0.285 OA
ATOM      5  C   UNL     1      21.857 -19.757  28.338  1.00  0.00     0.111 A 
ATOM      6  C   UNL     1      21.674 -18.526  29.016  1.00  0.00     0.134 A 
ATOM      7  C   UNL     1      21.386 -17.365  28.283  1.00  0.00     0.093 A 
ATOM      8  C   UNL     1      21.277 -17.411  26.889  1.00  0.00     0.123 A 
ATOM      9  C   UNL     1      21.457 -18.622  26.218  1.00  0.00     0.094 A 
ATOM     10  C   UNL     1      21.743 -19.790  26.930  1.00  0.00     0.146 A 
ATOM     11  O   UNL     1      21.904 -20.929  26.266  1.00  0.00    -0.452 OA
ENDROOT
BRANCH   1  12
ATOM     12  C   UNL     1      22.317 -23.291  26.005  1.00  0.00     0.021 A 
ATOM     13  C   UNL     1      21.196 -24.101  25.756  1.00  0.00     0.016 A 
ATOM     14  C   UNL     1      21.315 -25.254  24.973  1.00  0.00     0.047 A 
ATOM     15  C   UNL     1      22.559 -25.618  24.441  1.00  0.00     0.115 A 
ATOM     16  C   UNL     1      23.567 -23.674  25.485  1.00  0.00     0.016 A 
ATOM     17  C   UNL     1      23.683 -24.828  24.703  1.00  0.00     0.047 A 
BRANCH  15  18
ATOM     18  O   UNL     1      22.690 -26.764  23.659  1.00  0.00    -0.508 OA
ATOM     19  H   UNL     1      23.054 -26.720  22.714  1.00  0.00     0.293 HD
ENDBRANCH  15  18
ENDBRANCH   1  12
BRANCH   2  20
ATOM     20  O   UNL     1      22.674 -23.341  28.884  1.00  0.00    -0.502 OA
ATOM     21  H   UNL     1      22.461 -24.244  28.481  1.00  0.00     0.293 HD
ENDBRANCH   2  20
BRANCH   6  22
ATOM     22  O   UNL     1      21.776 -18.449  30.406  1.00  0.00    -0.507 OA
ATOM     23  H   UNL     1      22.645 -18.644  30.888  1.00  0.00     0.293 HD
ENDBRANCH   6  22
BRANCH   8  24
ATOM     24  O   UNL     1      20.993 -16.258  26.160  1.00  0.00    -0.508 OA
ATOM     25  H   UNL     1      20.871 -15.361  26.616  1.00  0.00     0.293 HD
ENDBRANCH   8  24
TORSDOF 5
ENDMDL
MODEL 6
REMARK VINA RESULT:    -6.739      1.180      1.728
REMARK INTER + INTRA:          -8.216
REMARK INTER:                  -8.011
REMARK INTRA:                  -0.205
REMARK UNBOUND:                -0.295
REMARK SMILES O=c1c(O)c(-c2ccc(O)cc2)oc2cc(O)cc(O)c12
REMARK SMILES IDX 5 1 3 2 2 3 1 4 21 5 19 6 18 7 16 8 15 9 14 10 13 11 6 12
REMARK SMILES IDX 7 13 8 14 9 15 12 16 11 17 10 18 4 20 20 22 17 24
REMARK H PARENT 10 19 4 21 20 23 17 25
REMARK Flexibility Score: inf
ROOT
ATOM      1  C   UNL     1      23.475 -25.006  27.700  1.00  0.00     0.180 A 
ATOM      2  C   UNL     1      22.651 -25.429  26.638  1.00  0.00     0.208 A 
ATOM      3  C   UNL     1      23.002 -25.077  25.326  1.00  0.00     0.238 A 
ATOM      4  O   UNL     1      22.279 -25.460  24.367  1.00  0.00    -0.285 OA
ATOM      5  C   UNL     1      24.154 -24.296  25.099  1.00  0.00     0.111 A 
ATOM      6  C   UNL     1      24.575 -23.895  23.807  1.00  0.00     0.134 A 
ATOM      7  C   UNL     1      25.728 -23.109  23.664  1.00  0.00     0.093 A 
ATOM      8  C   UNL     1      26.467 -22.717  24.786  1.00  0.00     0.123 A 
ATOM      9  C   UNL     1      26.055 -23.110  26.061  1.00  0.00     0.094 A 
ATOM     10  C   UNL     1      24.910 -23.894  26.225  1.00  0.00     0.146 A 
ATOM     11  O   UNL     1      24.544 -24.257  27.448  1.00  0.00    -0.452 OA
ENDROOT
BRANCH   1  12
ATOM     12  C   UNL     1      23.181 -25.353  29.110  1.00  0.00     0.021 A 
ATOM     13  C   UNL     1      23.948 -26.338  29.754  1.00  0.00     0.016 A 
ATOM     14  C   UNL     1      23.673 -26.698  31.077  1.00  0.00     0.047 A 
ATOM     15  C   UNL     1      22.618 -26.087  31.767  1.00  0.00     0.115 A 
ATOM     16  C   UNL     1      22.109 -24.759  29.802  1.00  0.00     0.016 A 
ATOM     17  C   UNL     1      21.836 -25.121  31.125  1.00  0.00     0.047 A 
BRANCH  15  18
ATOM     18  O   UNL     1      22.334 -26.437  33.085  1.00  0.00    -0.508 OA
ATOM     19  H   UNL     1      21.685 -25.898  33.647  1.00  0.00     0.293 HD
ENDBRANCH  15  18
ENDBRANCH   1  12
BRANCH   2  20
ATOM     20  O   UNL     1      21.488 -26.160  26.895  1.00  0.00    -0.502 OA
ATOM     21  H   UNL     1      21.285 -27.036  26.429  1.00  0.00     0.293 HD
ENDBRANCH   2  20
BRANCH   6  22
ATOM     22  O   UNL     1      23.860 -24.270  22.670  1.00  0.00    -0.507 OA
ATOM     23  H   UNL     1      22.905 -23.968  22.517  1.00  0.00     0.293 HD
ENDBRANCH   6  22
BRANCH   8  24
ATOM     24  O   UNL     1      27.611 -21.935  24.646  1.00  0.00    -0.508 OA
ATOM     25  H   UNL     1      28.538 -22.326  24.769  1.00  0.00     0.293 HD
ENDBRANCH   8  24
TORSDOF 5
ENDMDL
MODEL 7
REMARK VINA RESULT:    -6.672      3.527      3.779
REMARK INTER + INTRA:          -8.137
REMARK INTER:                  -7.980
REMARK INTRA:                  -0.157
REMARK UNBOUND:                -0.295
REMARK SMILES O=c1c(O)c(-c2ccc(O)cc2)oc2cc(O)cc(O)c12
REMARK SMILES IDX 5 1 3 2 2 3 1 4 21 5 19 6 18 7 16 8 15 9 14 10 13 11 6 12
REMARK SMILES IDX 7 13 8 14 9 15 12 16 11 17 10 18 4 20 20 22 17 24
REMARK H PARENT 10 19 4 21 20 23 17 25
REMARK Flexibility Score: inf
ROOT
ATOM      1  C   UNL     1      23.491 -24.271  28.245  1.00  0.00     0.180 A 
ATOM      2  C   UNL     1      22.721 -24.033  27.090  1.00  0.00     0.208 A 
ATOM      3  C   UNL     1      22.254 -22.733  26.842  1.00  0.00     0.238 A 
ATOM      4  O   UNL     1      21.574 -22.506  25.805  1.00  0.00    -0.285 OA
ATOM      5  C   UNL     1      22.545 -21.702  27.759  1.00  0.00     0.111 A 
ATOM      6  C   UNL     1      22.108 -20.366  27.585  1.00  0.00     0.134 A 
ATOM      7  C   UNL     1      22.430 -19.398  28.548  1.00  0.00     0.093 A 
ATOM      8  C   UNL     1      23.180 -19.740  29.679  1.00  0.00     0.123 A 
ATOM      9  C   UNL     1      23.612 -21.056  29.854  1.00  0.00     0.094 A 
ATOM     10  C   UNL     1      23.303 -22.035  28.905  1.00  0.00     0.146 A 
ATOM     11  O   UNL     1      23.731 -23.277  29.095  1.00  0.00    -0.452 OA
ENDROOT
BRANCH   1  12
ATOM     12  C   UNL     1      24.034 -25.611  28.566  1.00  0.00     0.021 A 
ATOM     13  C   UNL     1      23.635 -26.254  29.750  1.00  0.00     0.016 A 
ATOM     14  C   UNL     1      24.153 -27.509  30.084  1.00  0.00     0.047 A 
ATOM     15  C   UNL     1      25.089 -28.130  29.247  1.00  0.00     0.115 A 
ATOM     16  C   UNL     1      24.990 -26.231  27.740  1.00  0.00     0.016 A 
ATOM     17  C   UNL     1      25.507 -27.486  28.077  1.00  0.00     0.047 A 
BRANCH  15  18
ATOM     18  O   UNL     1      25.612 -29.380  29.568  1.00  0.00    -0.508 OA
ATOM     19  H   UNL     1      25.212 -29.947  30.306  1.00  0.00     0.293 HD
ENDBRANCH  15  18
ENDBRANCH   1  12
BRANCH   2  20
ATOM     20  O   UNL     1      22.405 -25.083  26.223  1.00  0.00    -0.502 OA
ATOM     21  H   UNL     1      22.956 -25.289  25.399  1.00  0.00     0.293 HD
ENDBRANCH   2  20
BRANCH   6  22
ATOM     22  O   UNL     1      21.359 -19.995  26.468  1.00  0.00    -0.507 OA
ATOM     23  H   UNL     1      21.561 -19.149  25.948  1.00  0.00     0.293 HD
ENDBRANCH   6  22
BRANCH   8  24
ATOM     24  O   UNL     1      23.499 -18.780  30.637  1.00  0.00    -0.508 OA
ATOM     25  H   UNL     1      24.407 -18.329  30.652  1.00  0.00     0.293 HD
ENDBRANCH   8  24
TORSDOF 5
ENDMDL
MODEL 8
REMARK VINA RESULT:    -6.583      2.086      6.697
REMARK INTER + INTRA:          -8.032
REMARK INTER:                  -7.739
REMARK INTRA:                  -0.293
REMARK UNBOUND:                -0.295
REMARK SMILES O=c1c(O)c(-c2ccc(O)cc2)oc2cc(O)cc(O)c12
REMARK SMILES IDX 5 1 3 2 2 3 1 4 21 5 19 6 18 7 16 8 15 9 14 10 13 11 6 12
REMARK SMILES IDX 7 13 8 14 9 15 12 16 11 17 10 18 4 20 20 22 17 24
REMARK H PARENT 10 19 4 21 20 23 17 25
REMARK Flexibility Score: inf
ROOT
ATOM      1  C   UNL     1      23.879 -25.454  27.411  1.00  0.00     0.180 A 
ATOM      2  C   UNL     1      23.541 -24.371  28.247  1.00  0.00     0.208 A 
ATOM      3  C   UNL     1      23.633 -24.534  29.637  1.00  0.00     0.238 A 
ATOM      4  O   UNL     1      23.345 -23.569  30.395  1.00  0.00    -0.285 OA
ATOM      5  C   UNL     1      24.040 -25.776  30.168  1.00  0.00     0.111 A 
ATOM      6  C   UNL     1      24.155 -26.023  31.558  1.00  0.00     0.134 A 
ATOM      7  C   UNL     1      24.558 -27.290  32.008  1.00  0.00     0.093 A 
ATOM      8  C   UNL     1      24.847 -28.311  31.096  1.00  0.00     0.123 A 
ATOM      9  C   UNL     1      24.734 -28.071  29.726  1.00  0.00     0.094 A 
ATOM     10  C   UNL     1      24.336 -26.816  29.257  1.00  0.00     0.146 A 
ATOM     11  O   UNL     1      24.243 -26.614  27.948  1.00  0.00    -0.452 OA
ENDROOT
BRANCH   1  12
ATOM     12  C   UNL     1      23.824 -25.355  25.934  1.00  0.00     0.021 A 
ATOM     13  C   UNL     1      22.707 -25.859  25.248  1.00  0.00     0.016 A 
ATOM     14  C   UNL     1      22.644 -25.797  23.852  1.00  0.00     0.047 A 
ATOM     15  C   UNL     1      23.705 -25.243  23.124  1.00  0.00     0.115 A 
ATOM     16  C   UNL     1      24.895 -24.819  25.195  1.00  0.00     0.016 A 
ATOM     17  C   UNL     1      24.831 -24.758  23.800  1.00  0.00     0.047 A 
BRANCH  15  18
ATOM     18  O   UNL     1      23.655 -25.175  21.734  1.00  0.00    -0.508 OA
ATOM     19  H   UNL     1      22.823 -24.860  21.250  1.00  0.00     0.293 HD
ENDBRANCH  15  18
ENDBRANCH   1  12
BRANCH   2  20
ATOM     20  O   UNL     1      23.093 -23.168  27.696  1.00  0.00    -0.502 OA
ATOM     21  H   UNL     1      23.704 -22.549  27.177  1.00  0.00     0.293 HD
ENDBRANCH   2  20
BRANCH   6  22
ATOM     22  O   UNL     1      23.874 -25.025  32.491  1.00  0.00    -0.507 OA
ATOM     23  H   UNL     1      22.969 -24.570  32.528  1.00  0.00     0.293 HD
ENDBRANCH   6  22
BRANCH   8  24
ATOM     24  O   UNL     1      25.245 -29.570  31.542  1.00  0.00    -0.508 OA
ATOM     25  H   UNL     1      26.212 -29.869  31.488  1.00  0.00     0.293 HD
ENDBRANCH   8  24
TORSDOF 5
ENDMDL
