MODEL 1
REMARK VINA RESULT:    -6.930      0.000      0.000
REMARK INTER + INTRA:          -8.408
REMARK INTER:                  -8.145
REMARK INTRA:                  -0.263
REMARK UNBOUND:                -0.263
REMARK SMILES O=c1cc(-c2ccc(O)c(O)c2)oc2cc(O)cc(O)c12
REMARK SMILES IDX 4 1 3 2 2 3 1 4 21 5 19 6 18 7 16 8 15 9 14 10 13 11 5 12
REMARK SMILES IDX 6 13 7 14 8 15 12 16 10 17 9 18 11 20 20 22 17 24
REMARK H PARENT 9 19 11 21 20 23 17 25
REMARK Flexibility Score: inf
ROOT
ATOM      1  C   UNL     1       8.188  16.217 -18.675  1.00  0.00     0.138 A 
ATOM      2  C   UNL     1       8.174  15.895 -20.039  1.00  0.00     0.100 A 
ATOM      3  C   UNL     1       8.520  14.607 -20.448  1.00  0.00     0.197 A 
ATOM      4  O   UNL     1       8.438  14.331 -21.673  1.00  0.00    -0.289 OA
ATOM      5  C   UNL     1       8.912  13.645 -19.487  1.00  0.00     0.107 A 
ATOM      6  C   UNL     1       9.326  12.314 -19.792  1.00  0.00     0.134 A 
ATOM      7  C   UNL     1       9.580  11.415 -18.748  1.00  0.00     0.093 A 
ATOM      8  C   UNL     1       9.494  11.817 -17.413  1.00  0.00     0.123 A 
ATOM      9  C   UNL     1       9.144  13.130 -17.106  1.00  0.00     0.094 A 
ATOM     10  C   UNL     1       8.851  14.042 -18.124  1.00  0.00     0.146 A 
ATOM     11  O   UNL     1       8.508  15.280 -17.788  1.00  0.00    -0.456 OA
ENDROOT
BRANCH   1  12
ATOM     12  C   UNL     1       7.830  17.573 -18.185  1.00  0.00     0.021 A 
ATOM     13  C   UNL     1       6.684  17.795 -17.398  1.00  0.00     0.016 A 
ATOM     14  C   UNL     1       6.366  19.084 -16.960  1.00  0.00     0.051 A 
ATOM     15  C   UNL     1       7.176  20.169 -17.303  1.00  0.00     0.157 A 
ATOM     16  C   UNL     1       8.633  18.671 -18.539  1.00  0.00     0.062 A 
ATOM     17  C   UNL     1       8.315  19.964 -18.099  1.00  0.00     0.158 A 
BRANCH  15  18
ATOM     18  O   UNL     1       6.832  21.443 -16.850  1.00  0.00    -0.504 OA
ATOM     19  H   UNL     1       7.508  22.195 -16.797  1.00  0.00     0.293 HD
ENDBRANCH  15  18
BRANCH  17  20
ATOM     20  O   UNL     1       9.125  21.043 -18.449  1.00  0.00    -0.504 OA
ATOM     21  H   UNL     1      10.133  20.952 -18.516  1.00  0.00     0.293 HD
ENDBRANCH  17  20
ENDBRANCH   1  12
BRANCH   6  22
ATOM     22  O   UNL     1       9.524  11.835 -21.089  1.00  0.00    -0.507 OA
ATOM     23  H   UNL     1      10.393  11.459 -21.439  1.00  0.00     0.293 HD
ENDBRANCH   6  22
BRANCH   8  24
ATOM     24  O   UNL     1       9.765  10.920 -16.381  1.00  0.00    -0.508 OA
ATOM     25  H   UNL     1      10.714  10.662 -16.139  1.00  0.00     0.293 HD
ENDBRANCH   8  24
TORSDOF 5
ENDMDL
MODEL 2
REMARK VINA RESULT:    -6.855      3.754      6.594
REMARK INTER + INTRA:          -8.320
REMARK INTER:                  -8.050
REMARK INTRA:                  -0.270
REMARK UNBOUND:                -0.263
REMARK SMILES O=c1cc(-c2ccc(O)c(O)c2)oc2cc(O)cc(O)c12
REMARK SMILES IDX 4 1 3 2 2 3 1 4 21 5 19 6 18 7 16 8 15 9 14 10 13 11 5 12
REMARK SMILES IDX 6 13 7 14 8 15 12 16 10 17 9 18 11 20 20 22 17 24
REMARK H PARENT 9 19 11 21 20 23 17 25
REMARK Flexibility Score: inf
ROOT
ATOM      1  C   UNL     1       9.047  12.266 -15.236  1.00  0.00     0.138 A 
ATOM      2  C   UNL     1       8.291  12.651 -14.120  1.00  0.00     0.100 A 
ATOM      3  C   UNL     1       7.742  11.675 -13.288  1.00  0.00     0.197 A 
ATOM      4  O   UNL     1       7.121  12.052 -12.260  1.00  0.00    -0.289 OA
ATOM      5  C   UNL     1       7.927  10.305 -13.593  1.00  0.00     0.107 A 
ATOM      6  C   UNL     1       7.379   9.224 -12.839  1.00  0.00     0.134 A 
ATOM      7  C   UNL     1       7.726   7.908 -13.170  1.00  0.00     0.093 A 
ATOM      8  C   UNL     1       8.550   7.632 -14.263  1.00  0.00     0.123 A 
ATOM      9  C   UNL     1       9.045   8.679 -15.038  1.00  0.00     0.094 A 
ATOM     10  C   UNL     1       8.746  10.005 -14.713  1.00  0.00     0.146 A 
ATOM     11  O   UNL     1       9.250  10.973 -15.469  1.00  0.00    -0.456 OA
ENDROOT
BRANCH   1  12
ATOM     12  C   UNL     1       9.652  13.263 -16.155  1.00  0.00     0.021 A 
ATOM     13  C   UNL     1      10.746  14.058 -15.767  1.00  0.00     0.016 A 
ATOM     14  C   UNL     1      11.289  14.996 -16.649  1.00  0.00     0.051 A 
ATOM     15  C   UNL     1      10.748  15.162 -17.927  1.00  0.00     0.157 A 
ATOM     16  C   UNL     1       9.104  13.444 -17.438  1.00  0.00     0.062 A 
ATOM     17  C   UNL     1       9.649  14.384 -18.324  1.00  0.00     0.158 A 
BRANCH  15  18
ATOM     18  O   UNL     1      11.313  16.106 -18.785  1.00  0.00    -0.504 OA
ATOM     19  H   UNL     1      11.298  15.994 -19.792  1.00  0.00     0.293 HD
ENDBRANCH  15  18
BRANCH  17  20
ATOM     20  O   UNL     1       9.101  14.547 -19.596  1.00  0.00    -0.504 OA
ATOM     21  H   UNL     1       9.652  14.407 -20.434  1.00  0.00     0.293 HD
ENDBRANCH  17  20
ENDBRANCH   1  12
BRANCH   6  22
ATOM     22  O   UNL     1       6.480   9.385 -11.781  1.00  0.00    -0.507 OA
ATOM     23  H   UNL     1       5.498   9.158 -11.821  1.00  0.00     0.293 HD
ENDBRANCH   6  22
BRANCH   8  24
ATOM     24  O   UNL     1       8.877   6.319 -14.594  1.00  0.00    -0.508 OA
ATOM     25  H   UNL     1       8.762   5.561 -13.931  1.00  0.00     0.293 HD
ENDBRANCH   8  24
TORSDOF 5
ENDMDL
MODEL 3
REMARK VINA RESULT:    -6.709      3.220      7.745
REMARK INTER + INTRA:          -8.148
REMARK INTER:                  -7.885
REMARK INTRA:                  -0.263
REMARK UNBOUND:                -0.263
REMARK SMILES O=c1cc(-c2ccc(O)c(O)c2)oc2cc(O)cc(O)c12
REMARK SMILES IDX 4 1 3 2 2 3 1 4 21 5 19 6 18 7 16 8 15 9 14 10 13 11 5 12
REMARK SMILES IDX 6 13 7 14 8 15 12 16 10 17 9 18 11 20 20 22 17 24
REMARK H PARENT 9 19 11 21 20 23 17 25
REMARK Flexibility Score: inf
ROOT
ATOM      1  C   UNL     1       9.820  12.149 -16.722  1.00  0.00     0.138 A 
ATOM      2  C   UNL     1      10.545  13.224 -16.187  1.00  0.00     0.100 A 
ATOM      3  C   UNL     1      10.612  14.428 -16.888  1.00  0.00     0.197 A 
ATOM      4  O   UNL     1      11.218  15.393 -16.354  1.00  0.00    -0.289 OA
ATOM      5  C   UNL     1       9.973  14.547 -18.145  1.00  0.00     0.107 A 
ATOM      6  C   UNL     1      10.009  15.713 -18.967  1.00  0.00     0.134 A 
ATOM      7  C   UNL     1       9.243  15.754 -20.139  1.00  0.00     0.093 A 
ATOM      8  C   UNL     1       8.491  14.650 -20.549  1.00  0.00     0.123 A 
ATOM      9  C   UNL     1       8.494  13.488 -19.780  1.00  0.00     0.094 A 
ATOM     10  C   UNL     1       9.220  13.427 -18.589  1.00  0.00     0.146 A 
ATOM     11  O   UNL     1       9.184  12.305 -17.879  1.00  0.00    -0.456 OA
ENDROOT
BRANCH   1  12
ATOM     12  C   UNL     1       9.717  10.845 -16.019  1.00  0.00     0.021 A 
ATOM     13  C   UNL     1      10.620   9.796 -16.273  1.00  0.00     0.016 A 
ATOM     14  C   UNL     1      10.493   8.576 -15.604  1.00  0.00     0.051 A 
ATOM     15  C   UNL     1       9.465   8.378 -14.679  1.00  0.00     0.157 A 
ATOM     16  C   UNL     1       8.676  10.636 -15.098  1.00  0.00     0.062 A 
ATOM     17  C   UNL     1       8.549   9.411 -14.425  1.00  0.00     0.158 A 
BRANCH  15  18
ATOM     18  O   UNL     1       9.366   7.149 -14.028  1.00  0.00    -0.504 OA
ATOM     19  H   UNL     1       8.471   6.719 -13.824  1.00  0.00     0.293 HD
ENDBRANCH  15  18
BRANCH  17  20
ATOM     20  O   UNL     1       7.517   9.220 -13.507  1.00  0.00    -0.504 OA
ATOM     21  H   UNL     1       7.652   9.376 -12.515  1.00  0.00     0.293 HD
ENDBRANCH  17  20
ENDBRANCH   1  12
BRANCH   6  22
ATOM     22  O   UNL     1      10.792  16.839 -18.694  1.00  0.00    -0.507 OA
ATOM     23  H   UNL     1      10.819  17.320 -17.808  1.00  0.00     0.293 HD
ENDBRANCH   6  22
BRANCH   8  24
ATOM     24  O   UNL     1       7.744  14.695 -21.724  1.00  0.00    -0.508 OA
ATOM     25  H   UNL     1       8.081  15.180 -22.547  1.00  0.00     0.293 HD
ENDBRANCH   8  24
TORSDOF 5
ENDMDL
MODEL 4
REMARK VINA RESULT:    -6.631      4.118      8.464
REMARK INTER + INTRA:          -8.056
REMARK INTER:                  -7.740
REMARK INTRA:                  -0.316
REMARK UNBOUND:                -0.263
REMARK SMILES O=c1cc(-c2ccc(O)c(O)c2)oc2cc(O)cc(O)c12
REMARK SMILES IDX 4 1 3 2 2 3 1 4 21 5 19 6 18 7 16 8 15 9 14 10 13 11 5 12
REMARK SMILES IDX 6 13 7 14 8 15 12 16 10 17 9 18 11 20 20 22 17 24
REMARK H PARENT 9 19 11 21 20 23 17 25
REMARK Flexibility Score: inf
ROOT
ATOM      1  C   UNL     1       8.166  11.098 -14.649  1.00  0.00     0.138 A 
ATOM      2  C   UNL     1       8.706  12.286 -14.138  1.00  0.00     0.100 A 
ATOM      3  C   UNL     1       9.244  13.231 -15.011  1.00  0.00     0.197 A 
ATOM      4  O   UNL     1       9.665  14.315 -14.528  1.00  0.00    -0.289 OA
ATOM      5  C   UNL     1       9.268  12.971 -16.402  1.00  0.00     0.107 A 
ATOM      6  C   UNL     1       9.828  13.844 -17.383  1.00  0.00     0.134 A 
ATOM      7  C   UNL     1       9.690  13.533 -18.741  1.00  0.00     0.093 A 
ATOM      8  C   UNL     1       9.066  12.352 -19.152  1.00  0.00     0.123 A 
ATOM      9  C   UNL     1       8.564  11.468 -18.200  1.00  0.00     0.094 A 
ATOM     10  C   UNL     1       8.655  11.766 -16.838  1.00  0.00     0.146 A 
ATOM     11  O   UNL     1       8.152  10.902 -15.963  1.00  0.00    -0.456 OA
ENDROOT
BRANCH   1  12
ATOM     12  C   UNL     1       7.582  10.058 -13.764  1.00  0.00     0.021 A 
ATOM     13  C   UNL     1       7.334  10.302 -12.400  1.00  0.00     0.016 A 
ATOM     14  C   UNL     1       6.794   9.301 -11.589  1.00  0.00     0.051 A 
ATOM     15  C   UNL     1       6.499   8.042 -12.118  1.00  0.00     0.157 A 
ATOM     16  C   UNL     1       7.296   8.784 -14.288  1.00  0.00     0.062 A 
ATOM     17  C   UNL     1       6.752   7.780 -13.474  1.00  0.00     0.158 A 
BRANCH  15  18
ATOM     18  O   UNL     1       5.960   7.064 -11.282  1.00  0.00    -0.504 OA
ATOM     19  H   UNL     1       4.974   6.831 -11.294  1.00  0.00     0.293 HD
ENDBRANCH  15  18
BRANCH  17  20
ATOM     20  O   UNL     1       6.465   6.525 -14.008  1.00  0.00    -0.504 OA
ATOM     21  H   UNL     1       6.472   5.688 -13.436  1.00  0.00     0.293 HD
ENDBRANCH  17  20
ENDBRANCH   1  12
BRANCH   6  22
ATOM     22  O   UNL     1      10.544  15.005 -17.078  1.00  0.00    -0.507 OA
ATOM     23  H   UNL     1      11.550  15.080 -17.086  1.00  0.00     0.293 HD
ENDBRANCH   6  22
BRANCH   8  24
ATOM     24  O   UNL     1       8.947  12.044 -20.505  1.00  0.00    -0.508 OA
ATOM     25  H   UNL     1       9.597  11.417 -20.965  1.00  0.00     0.293 HD
ENDBRANCH   8  24
TORSDOF 5
ENDMDL
MODEL 5
REMARK VINA RESULT:    -6.577      3.268      6.003
REMARK INTER + INTRA:          -7.993
REMARK INTER:                  -7.730
REMARK INTRA:                  -0.264
REMARK UNBOUND:                -0.263
REMARK SMILES O=c1cc(-c2ccc(O)c(O)c2)oc2cc(O)cc(O)c12
REMARK SMILES IDX 4 1 3 2 2 3 1 4 21 5 19 6 18 7 16 8 15 9 14 10 13 11 5 12
REMARK SMILES IDX 6 13 7 14 8 15 12 16 10 17 9 18 11 20 20 22 17 24
REMARK H PARENT 9 19 11 21 20 23 17 25
REMARK Flexibility Score: inf
ROOT
ATOM      1  C   UNL     1       9.803  11.875 -16.399  1.00  0.00     0.138 A 
ATOM      2  C   UNL     1      10.612  10.772 -16.704  1.00  0.00     0.100 A 
ATOM      3  C   UNL     1      10.412   9.564 -16.036  1.00  0.00     0.197 A 
ATOM      4  O   UNL     1      11.112   8.574 -16.375  1.00  0.00    -0.289 OA
ATOM      5  C   UNL     1       9.416   9.469 -15.035  1.00  0.00     0.107 A 
ATOM      6  C   UNL     1       9.150   8.300 -14.260  1.00  0.00     0.134 A 
ATOM      7  C   UNL     1       8.062   8.290 -13.379  1.00  0.00     0.093 A 
ATOM      8  C   UNL     1       7.268   9.426 -13.200  1.00  0.00     0.123 A 
ATOM      9  C   UNL     1       7.553  10.589 -13.912  1.00  0.00     0.094 A 
ATOM     10  C   UNL     1       8.610  10.620 -14.824  1.00  0.00     0.146 A 
ATOM     11  O   UNL     1       8.840  11.745 -15.493  1.00  0.00    -0.456 OA
ENDROOT
BRANCH   1  12
ATOM     12  C   UNL     1       9.975  13.185 -17.078  1.00  0.00     0.021 A 
ATOM     13  C   UNL     1      10.861  14.162 -16.587  1.00  0.00     0.016 A 
ATOM     14  C   UNL     1      10.994  15.390 -17.241  1.00  0.00     0.051 A 
ATOM     15  C   UNL     1      10.244  15.666 -18.387  1.00  0.00     0.157 A 
ATOM     16  C   UNL     1       9.213  13.475 -18.224  1.00  0.00     0.062 A 
ATOM     17  C   UNL     1       9.347  14.706 -18.882  1.00  0.00     0.158 A 
BRANCH  15  18
ATOM     18  O   UNL     1      10.400  16.901 -19.017  1.00  0.00    -0.504 OA
ATOM     19  H   UNL     1      11.279  17.184 -19.435  1.00  0.00     0.293 HD
ENDBRANCH  15  18
BRANCH  17  20
ATOM     20  O   UNL     1       8.593  14.977 -20.022  1.00  0.00    -0.504 OA
ATOM     21  H   UNL     1       8.324  15.922 -20.270  1.00  0.00     0.293 HD
ENDBRANCH  17  20
ENDBRANCH   1  12
BRANCH   6  22
ATOM     22  O   UNL     1       9.932   7.142 -14.300  1.00  0.00    -0.507 OA
ATOM     23  H   UNL     1       9.880   6.389 -13.632  1.00  0.00     0.293 HD
ENDBRANCH   6  22
BRANCH   8  24
ATOM     24  O   UNL     1       6.197   9.411 -12.309  1.00  0.00    -0.508 OA
ATOM     25  H   UNL     1       6.129  10.081 -11.552  1.00  0.00     0.293 HD
ENDBRANCH   8  24
TORSDOF 5
ENDMDL
MODEL 6
REMARK VINA RESULT:    -6.508      2.329      6.439
REMARK INTER + INTRA:          -7.913
REMARK INTER:                  -7.604
REMARK INTRA:                  -0.309
REMARK UNBOUND:                -0.263
REMARK SMILES O=c1cc(-c2ccc(O)c(O)c2)oc2cc(O)cc(O)c12
REMARK SMILES IDX 4 1 3 2 2 3 1 4 21 5 19 6 18 7 16 8 15 9 14 10 13 11 5 12
REMARK SMILES IDX 6 13 7 14 8 15 12 16 10 17 9 18 11 20 20 22 17 24
REMARK H PARENT 9 19 11 21 20 23 17 25
REMARK Flexibility Score: inf
ROOT
ATOM      1  C   UNL     1       8.292  12.970 -17.439  1.00  0.00     0.138 A 
ATOM      2  C   UNL     1       8.634  12.368 -18.658  1.00  0.00     0.100 A 
ATOM      3  C   UNL     1       8.756  13.153 -19.805  1.00  0.00     0.197 A 
ATOM      4  O   UNL     1       9.124  12.594 -20.871  1.00  0.00    -0.289 OA
ATOM      5  C   UNL     1       8.504  14.544 -19.736  1.00  0.00     0.107 A 
ATOM      6  C   UNL     1       8.557  15.435 -20.850  1.00  0.00     0.134 A 
ATOM      7  C   UNL     1       8.402  16.811 -20.639  1.00  0.00     0.093 A 
ATOM      8  C   UNL     1       8.136  17.321 -19.365  1.00  0.00     0.123 A 
ATOM      9  C   UNL     1       8.028  16.452 -18.282  1.00  0.00     0.094 A 
ATOM     10  C   UNL     1       8.211  15.078 -18.453  1.00  0.00     0.146 A 
ATOM     11  O   UNL     1       8.113  14.286 -17.391  1.00  0.00    -0.456 OA
ENDROOT
BRANCH   1  12
ATOM     12  C   UNL     1       8.147  12.182 -16.189  1.00  0.00     0.021 A 
ATOM     13  C   UNL     1       7.773  10.825 -16.209  1.00  0.00     0.016 A 
ATOM     14  C   UNL     1       7.635  10.111 -15.016  1.00  0.00     0.051 A 
ATOM     15  C   UNL     1       7.860  10.736 -13.786  1.00  0.00     0.157 A 
ATOM     16  C   UNL     1       8.358  12.808 -14.948  1.00  0.00     0.062 A 
ATOM     17  C   UNL     1       8.221  12.092 -13.750  1.00  0.00     0.158 A 
BRANCH  15  18
ATOM     18  O   UNL     1       7.714   9.995 -12.613  1.00  0.00    -0.504 OA
ATOM     19  H   UNL     1       7.151  10.323 -11.837  1.00  0.00     0.293 HD
ENDBRANCH  15  18
BRANCH  17  20
ATOM     20  O   UNL     1       8.442  12.723 -12.527  1.00  0.00    -0.504 OA
ATOM     21  H   UNL     1       8.477  13.733 -12.448  1.00  0.00     0.293 HD
ENDBRANCH  17  20
ENDBRANCH   1  12
BRANCH   6  22
ATOM     22  O   UNL     1       8.734  15.023 -22.173  1.00  0.00    -0.507 OA
ATOM     23  H   UNL     1       9.516  15.279 -22.757  1.00  0.00     0.293 HD
ENDBRANCH   6  22
BRANCH   8  24
ATOM     24  O   UNL     1       7.967  18.690 -19.168  1.00  0.00    -0.508 OA
ATOM     25  H   UNL     1       8.759  19.321 -19.135  1.00  0.00     0.293 HD
ENDBRANCH   8  24
TORSDOF 5
ENDMDL
MODEL 7
REMARK VINA RESULT:    -6.486      3.091      4.965
REMARK INTER + INTRA:          -7.886
REMARK INTER:                  -7.572
REMARK INTRA:                  -0.315
REMARK UNBOUND:                -0.263
REMARK SMILES O=c1cc(-c2ccc(O)c(O)c2)oc2cc(O)cc(O)c12
REMARK SMILES IDX 4 1 3 2 2 3 1 4 21 5 19 6 18 7 16 8 15 9 14 10 13 11 5 12
REMARK SMILES IDX 6 13 7 14 8 15 12 16 10 17 9 18 11 20 20 22 17 24
REMARK H PARENT 9 19 11 21 20 23 17 25
REMARK Flexibility Score: inf
ROOT
ATOM      1  C   UNL     1       8.452  12.772 -18.213  1.00  0.00     0.138 A 
ATOM      2  C   UNL     1       8.354  11.406 -18.512  1.00  0.00     0.100 A 
ATOM      3  C   UNL     1       8.276  10.476 -17.475  1.00  0.00     0.197 A 
ATOM      4  O   UNL     1       8.126   9.262 -17.775  1.00  0.00    -0.289 OA
ATOM      5  C   UNL     1       8.326  10.915 -16.131  1.00  0.00     0.107 A 
ATOM      6  C   UNL     1       8.296  10.054 -14.993  1.00  0.00     0.134 A 
ATOM      7  C   UNL     1       8.235  10.610 -13.709  1.00  0.00     0.093 A 
ATOM      8  C   UNL     1       8.265  11.994 -13.520  1.00  0.00     0.123 A 
ATOM      9  C   UNL     1       8.349  12.841 -14.623  1.00  0.00     0.094 A 
ATOM     10  C   UNL     1       8.377  12.319 -15.918  1.00  0.00     0.146 A 
ATOM     11  O   UNL     1       8.443  13.162 -16.942  1.00  0.00    -0.456 OA
ENDROOT
BRANCH   1  12
ATOM     12  C   UNL     1       8.540  13.803 -19.277  1.00  0.00     0.021 A 
ATOM     13  C   UNL     1       8.234  13.508 -20.619  1.00  0.00     0.016 A 
ATOM     14  C   UNL     1       8.336  14.497 -21.602  1.00  0.00     0.051 A 
ATOM     15  C   UNL     1       8.749  15.789 -21.267  1.00  0.00     0.157 A 
ATOM     16  C   UNL     1       8.968  15.102 -18.949  1.00  0.00     0.062 A 
ATOM     17  C   UNL     1       9.069  16.095 -19.935  1.00  0.00     0.158 A 
BRANCH  15  18
ATOM     18  O   UNL     1       8.839  16.753 -22.271  1.00  0.00    -0.504 OA
ATOM     19  H   UNL     1       8.549  16.566 -23.224  1.00  0.00     0.293 HD
ENDBRANCH  15  18
BRANCH  17  20
ATOM     20  O   UNL     1       9.486  17.380 -19.594  1.00  0.00    -0.504 OA
ATOM     21  H   UNL     1       9.858  17.593 -18.676  1.00  0.00     0.293 HD
ENDBRANCH  17  20
ENDBRANCH   1  12
BRANCH   6  22
ATOM     22  O   UNL     1       8.348   8.659 -15.067  1.00  0.00    -0.507 OA
ATOM     23  H   UNL     1       7.746   8.032 -14.555  1.00  0.00     0.293 HD
ENDBRANCH   6  22
BRANCH   8  24
ATOM     24  O   UNL     1       8.220  12.538 -12.238  1.00  0.00    -0.508 OA
ATOM     25  H   UNL     1       7.845  13.464 -12.069  1.00  0.00     0.293 HD
ENDBRANCH   8  24
TORSDOF 5
ENDMDL
MODEL 8
REMARK VINA RESULT:    -6.402      4.888      7.477
REMARK INTER + INTRA:          -7.787
REMARK INTER:                  -7.492
REMARK INTRA:                  -0.295
REMARK UNBOUND:                -0.263
REMARK SMILES O=c1cc(-c2ccc(O)c(O)c2)oc2cc(O)cc(O)c12
REMARK SMILES IDX 4 1 3 2 2 3 1 4 21 5 19 6 18 7 16 8 15 9 14 10 13 11 5 12
REMARK SMILES IDX 6 13 7 14 8 15 12 16 10 17 9 18 11 20 20 22 17 24
REMARK H PARENT 9 19 11 21 20 23 17 25
REMARK Flexibility Score: inf
ROOT
ATOM      1  C   UNL     1       8.697  10.687 -14.937  1.00  0.00     0.138 A 
ATOM      2  C   UNL     1       8.407   9.650 -15.835  1.00  0.00     0.100 A 
ATOM      3  C   UNL     1       7.704   8.530 -15.391  1.00  0.00     0.197 A 
ATOM      4  O   UNL     1       7.404   7.645 -16.234  1.00  0.00    -0.289 OA
ATOM      5  C   UNL     1       7.317   8.434 -14.033  1.00  0.00     0.107 A 
ATOM      6  C   UNL     1       6.633   7.321 -13.460  1.00  0.00     0.134 A 
ATOM      7  C   UNL     1       6.199   7.389 -12.130  1.00  0.00     0.093 A 
ATOM      8  C   UNL     1       6.477   8.504 -11.336  1.00  0.00     0.123 A 
ATOM      9  C   UNL     1       7.192   9.573 -11.871  1.00  0.00     0.094 A 
ATOM     10  C   UNL     1       7.609   9.551 -13.205  1.00  0.00     0.146 A 
ATOM     11  O   UNL     1       8.275  10.597 -13.680  1.00  0.00    -0.456 OA
ENDROOT
BRANCH   1  12
ATOM     12  C   UNL     1       9.443  11.901 -15.356  1.00  0.00     0.021 A 
ATOM     13  C   UNL     1      10.597  11.819 -16.158  1.00  0.00     0.016 A 
ATOM     14  C   UNL     1      11.285  12.978 -16.528  1.00  0.00     0.051 A 
ATOM     15  C   UNL     1      10.841  14.232 -16.102  1.00  0.00     0.157 A 
ATOM     16  C   UNL     1       9.010  13.165 -14.919  1.00  0.00     0.062 A 
ATOM     17  C   UNL     1       9.699  14.328 -15.292  1.00  0.00     0.158 A 
BRANCH  15  18
ATOM     18  O   UNL     1      11.550  15.369 -16.490  1.00  0.00    -0.504 OA
ATOM     19  H   UNL     1      12.388  15.671 -16.006  1.00  0.00     0.293 HD
ENDBRANCH  15  18
BRANCH  17  20
ATOM     20  O   UNL     1       9.253  15.576 -14.859  1.00  0.00    -0.504 OA
ATOM     21  H   UNL     1       8.558  15.668 -14.128  1.00  0.00     0.293 HD
ENDBRANCH  17  20
ENDBRANCH   1  12
BRANCH   6  22
ATOM     22  O   UNL     1       6.378   6.126 -14.138  1.00  0.00    -0.507 OA
ATOM     23  H   UNL     1       5.623   5.984 -14.791  1.00  0.00     0.293 HD
ENDBRANCH   6  22
BRANCH   8  24
ATOM     24  O   UNL     1       6.055   8.556 -10.009  1.00  0.00    -0.508 OA
ATOM     25  H   UNL     1       5.666   7.744  -9.545  1.00  0.00     0.293 HD
ENDBRANCH   8  24
TORSDOF 5
ENDMDL
MODEL 9
REMARK VINA RESULT:    -6.250      3.728      6.834
REMARK INTER + INTRA:          -7.609
REMARK INTER:                  -7.291
REMARK INTRA:                  -0.318
REMARK UNBOUND:                -0.263
REMARK SMILES O=c1cc(-c2ccc(O)c(O)c2)oc2cc(O)cc(O)c12
REMARK SMILES IDX 4 1 3 2 2 3 1 4 21 5 19 6 18 7 16 8 15 9 14 10 13 11 5 12
REMARK SMILES IDX 6 13 7 14 8 15 12 16 10 17 9 18 11 20 20 22 17 24
REMARK H PARENT 9 19 11 21 20 23 17 25
REMARK Flexibility Score: inf
ROOT
ATOM      1  C   UNL     1       7.826  11.613 -16.439  1.00  0.00     0.138 A 
ATOM      2  C   UNL     1       7.282  12.200 -15.288  1.00  0.00     0.100 A 
ATOM      3  C   UNL     1       7.087  11.426 -14.145  1.00  0.00     0.197 A 
ATOM      4  O   UNL     1       6.654  11.994 -13.108  1.00  0.00    -0.289 OA
ATOM      5  C   UNL     1       7.411  10.048 -14.164  1.00  0.00     0.107 A 
ATOM      6  C   UNL     1       7.216   9.152 -13.070  1.00  0.00     0.134 A 
ATOM      7  C   UNL     1       7.682   7.835 -13.167  1.00  0.00     0.093 A 
ATOM      8  C   UNL     1       8.281   7.365 -14.339  1.00  0.00     0.123 A 
ATOM      9  C   UNL     1       8.426   8.218 -15.431  1.00  0.00     0.094 A 
ATOM     10  C   UNL     1       8.002   9.547 -15.354  1.00  0.00     0.146 A 
ATOM     11  O   UNL     1       8.172  10.330 -16.413  1.00  0.00    -0.456 OA
ENDROOT
BRANCH   1  12
ATOM     12  C   UNL     1       8.053  12.391 -17.683  1.00  0.00     0.021 A 
ATOM     13  C   UNL     1       7.639  13.731 -17.803  1.00  0.00     0.016 A 
ATOM     14  C   UNL     1       7.857  14.435 -18.991  1.00  0.00     0.051 A 
ATOM     15  C   UNL     1       8.482  13.817 -20.077  1.00  0.00     0.157 A 
ATOM     16  C   UNL     1       8.669  11.770 -18.785  1.00  0.00     0.062 A 
ATOM     17  C   UNL     1       8.889  12.477 -19.976  1.00  0.00     0.158 A 
BRANCH  15  18
ATOM     18  O   UNL     1       8.685  14.547 -21.247  1.00  0.00    -0.504 OA
ATOM     19  H   UNL     1       9.562  14.516 -21.755  1.00  0.00     0.293 HD
ENDBRANCH  15  18
BRANCH  17  20
ATOM     20  O   UNL     1       9.510  11.853 -21.057  1.00  0.00    -0.504 OA
ATOM     21  H   UNL     1       9.381  10.866 -21.247  1.00  0.00     0.293 HD
ENDBRANCH  17  20
ENDBRANCH   1  12
BRANCH   6  22
ATOM     22  O   UNL     1       6.555   9.495 -11.887  1.00  0.00    -0.507 OA
ATOM     23  H   UNL     1       5.712   9.055 -11.550  1.00  0.00     0.293 HD
ENDBRANCH   6  22
BRANCH   8  24
ATOM     24  O   UNL     1       8.727   6.048 -14.431  1.00  0.00    -0.508 OA
ATOM     25  H   UNL     1       8.853   5.473 -13.607  1.00  0.00     0.293 HD
ENDBRANCH   8  24
TORSDOF 5
ENDMDL
