MODEL 1
REMARK VINA RESULT:    -5.577      0.000      0.000
REMARK INTER + INTRA:         -15.704
REMARK INTER:                 -12.098
REMARK INTRA:                  -3.606
REMARK UNBOUND:                -3.606
REMARK SMILES CCCCCCCCCCCCCCCCCCCCCC(=O)[O-]
REMARK SMILES IDX 12 1 11 2 10 3 9 4 8 5 7 6 6 7 5 8 4 9 3 10 2 11 1 12 13 13
REMARK SMILES IDX 14 14 15 15 16 16 17 17 18 18 19 19 20 20 21 21 22 22 23 23
REMARK SMILES IDX 24 24
REMARK H PARENT
REMARK Flexibility Score: inf
ROOT
ATOM      1  C   UNL     1     105.754  24.954 196.120  1.00  0.00     0.000 C 
ENDROOT
BRANCH   1   2
ATOM      2  C   UNL     1     105.007  24.146 195.044  1.00  0.00     0.000 C 
BRANCH   2   3
ATOM      3  C   UNL     1     105.021  22.636 195.326  1.00  0.00     0.000 C 
BRANCH   3   4
ATOM      4  C   UNL     1     104.283  21.822 194.253  1.00  0.00    -0.000 C 
BRANCH   4   5
ATOM      5  C   UNL     1     103.090  22.608 193.694  1.00  0.00    -0.000 C 
BRANCH   5   6
ATOM      6  C   UNL     1     101.761  22.020 194.191  1.00  0.00    -0.000 C 
BRANCH   6   7
ATOM      7  C   UNL     1     101.136  22.837 195.336  1.00  0.00    -0.000 C 
BRANCH   7   8
ATOM      8  C   UNL     1     100.625  22.004 196.526  1.00  0.00    -0.000 C 
BRANCH   8   9
ATOM      9  C   UNL     1     100.955  20.509 196.397  1.00  0.00    -0.000 C 
BRANCH   9  10
ATOM     10  C   UNL     1     102.161  20.136 197.273  1.00  0.00    -0.000 C 
BRANCH  10  11
ATOM     11  C   UNL     1     102.475  18.633 197.237  1.00  0.00    -0.003 C 
ATOM     12  C   UNL     1     103.975  18.344 197.167  1.00  0.00     0.004 C 
ENDBRANCH  10  11
ENDBRANCH   9  10
ENDBRANCH   8   9
ENDBRANCH   7   8
ENDBRANCH   6   7
ENDBRANCH   5   6
ENDBRANCH   4   5
ENDBRANCH   3   4
ENDBRANCH   2   3
ENDBRANCH   1   2
BRANCH   1  13
ATOM     13  C   UNL     1     104.811  25.581 197.163  1.00  0.00     0.000 C 
BRANCH  13  14
ATOM     14  C   UNL     1     103.327  25.191 197.025  1.00  0.00     0.000 C 
BRANCH  14  15
ATOM     15  C   UNL     1     102.757  24.544 198.295  1.00  0.00     0.000 C 
BRANCH  15  16
ATOM     16  C   UNL     1     103.485  23.233 198.623  1.00  0.00     0.000 C 
BRANCH  16  17
ATOM     17  C   UNL     1     104.142  23.244 200.015  1.00  0.00     0.000 C 
BRANCH  17  18
ATOM     18  C   UNL     1     105.682  23.158 199.976  1.00  0.00     0.000 C 
BRANCH  18  19
ATOM     19  C   UNL     1     106.191  22.382 198.747  1.00  0.00     0.000 C 
BRANCH  19  20
ATOM     20  C   UNL     1     107.273  21.342 199.096  1.00  0.00     0.006 C 
BRANCH  20  21
ATOM     21  C   UNL     1     106.879  19.896 198.751  1.00  0.00     0.053 C 
BRANCH  21  22
ATOM     22  C   UNL     1     107.531  19.402 197.496  1.00  0.00     0.041 C 
ATOM     23  O   UNL     1     108.113  18.285 197.479  1.00  0.00    -0.550 OA
ATOM     24  O   UNL     1     107.479  20.168 196.338  1.00  0.00    -0.550 OA
ENDBRANCH  21  22
ENDBRANCH  20  21
ENDBRANCH  19  20
ENDBRANCH  18  19
ENDBRANCH  17  18
ENDBRANCH  16  17
ENDBRANCH  15  16
ENDBRANCH  14  15
ENDBRANCH  13  14
ENDBRANCH   1  13
TORSDOF 20
ENDMDL
MODEL 2
REMARK VINA RESULT:    -5.549      1.288      5.515
REMARK INTER + INTRA:         -15.642
REMARK INTER:                 -11.729
REMARK INTRA:                  -3.913
REMARK UNBOUND:                -3.606
REMARK SMILES CCCCCCCCCCCCCCCCCCCCCC(=O)[O-]
REMARK SMILES IDX 12 1 11 2 10 3 9 4 8 5 7 6 6 7 5 8 4 9 3 10 2 11 1 12 13 13
REMARK SMILES IDX 14 14 15 15 16 16 17 17 18 18 19 19 20 20 21 21 22 22 23 23
REMARK SMILES IDX 24 24
REMARK H PARENT
REMARK Flexibility Score: inf
ROOT
ATOM      1  C   UNL     1     104.812  20.275 197.222  1.00  0.00     0.000 C 
ENDROOT
BRANCH   1   2
ATOM      2  C   UNL     1     106.110  19.503 197.513  1.00  0.00     0.000 C 
BRANCH   2   3
ATOM      3  C   UNL     1     106.954  20.165 198.613  1.00  0.00     0.000 C 
BRANCH   3   4
ATOM      4  C   UNL     1     106.916  21.700 198.552  1.00  0.00    -0.000 C 
BRANCH   4   5
ATOM      5  C   UNL     1     106.503  22.292 199.906  1.00  0.00    -0.000 C 
BRANCH   5   6
ATOM      6  C   UNL     1     105.576  23.502 199.718  1.00  0.00    -0.000 C 
BRANCH   6   7
ATOM      7  C   UNL     1     104.123  23.214 200.136  1.00  0.00    -0.000 C 
BRANCH   7   8
ATOM      8  C   UNL     1     103.085  23.330 199.005  1.00  0.00    -0.000 C 
BRANCH   8   9
ATOM      9  C   UNL     1     103.720  23.616 197.636  1.00  0.00    -0.000 C 
BRANCH   9  10
ATOM     10  C   UNL     1     103.308  25.004 197.120  1.00  0.00    -0.000 C 
BRANCH  10  11
ATOM     11  C   UNL     1     104.449  25.725 196.387  1.00  0.00    -0.003 C 
ATOM     12  C   UNL     1     105.761  24.942 196.420  1.00  0.00     0.004 C 
ENDBRANCH  10  11
ENDBRANCH   9  10
ENDBRANCH   8   9
ENDBRANCH   7   8
ENDBRANCH   6   7
ENDBRANCH   5   6
ENDBRANCH   4   5
ENDBRANCH   3   4
ENDBRANCH   2   3
ENDBRANCH   1   2
BRANCH   1  13
ATOM     13  C   UNL     1     103.579  19.358 197.116  1.00  0.00     0.000 C 
BRANCH  13  14
ATOM     14  C   UNL     1     102.231  20.031 197.437  1.00  0.00     0.000 C 
BRANCH  14  15
ATOM     15  C   UNL     1     101.384  20.301 196.186  1.00  0.00     0.000 C 
BRANCH  15  16
ATOM     16  C   UNL     1     100.571  21.595 196.337  1.00  0.00     0.000 C 
BRANCH  16  17
ATOM     17  C   UNL     1     101.000  22.692 195.345  1.00  0.00     0.000 C 
BRANCH  17  18
ATOM     18  C   UNL     1     101.893  22.175 194.197  1.00  0.00     0.000 C 
BRANCH  18  19
ATOM     19  C   UNL     1     103.209  22.964 194.082  1.00  0.00     0.000 C 
BRANCH  19  20
ATOM     20  C   UNL     1     104.326  22.174 193.374  1.00  0.00     0.006 C 
BRANCH  20  21
ATOM     21  C   UNL     1     105.659  22.157 194.142  1.00  0.00     0.053 C 
BRANCH  21  22
ATOM     22  C   UNL     1     106.524  20.990 193.778  1.00  0.00     0.041 C 
ATOM     23  O   UNL     1     106.298  20.334 192.726  1.00  0.00    -0.550 OA
ATOM     24  O   UNL     1     107.594  20.638 194.592  1.00  0.00    -0.550 OA
ENDBRANCH  21  22
ENDBRANCH  20  21
ENDBRANCH  19  20
ENDBRANCH  18  19
ENDBRANCH  17  18
ENDBRANCH  16  17
ENDBRANCH  15  16
ENDBRANCH  14  15
ENDBRANCH  13  14
ENDBRANCH   1  13
TORSDOF 20
ENDMDL
MODEL 3
REMARK VINA RESULT:    -5.519      2.644      5.565
REMARK INTER + INTRA:         -15.578
REMARK INTER:                 -11.950
REMARK INTRA:                  -3.628
REMARK UNBOUND:                -3.606
REMARK SMILES CCCCCCCCCCCCCCCCCCCCCC(=O)[O-]
REMARK SMILES IDX 12 1 11 2 10 3 9 4 8 5 7 6 6 7 5 8 4 9 3 10 2 11 1 12 13 13
REMARK SMILES IDX 14 14 15 15 16 16 17 17 18 18 19 19 20 20 21 21 22 22 23 23
REMARK SMILES IDX 24 24
REMARK H PARENT
REMARK Flexibility Score: inf
ROOT
ATOM      1  C   UNL     1     103.888  19.692 197.443  1.00  0.00     0.000 C 
ENDROOT
BRANCH   1   2
ATOM      2  C   UNL     1     102.705  18.709 197.465  1.00  0.00     0.000 C 
BRANCH   2   3
ATOM      3  C   UNL     1     101.445  19.289 196.802  1.00  0.00     0.000 C 
BRANCH   3   4
ATOM      4  C   UNL     1     101.539  20.804 196.568  1.00  0.00    -0.000 C 
BRANCH   4   5
ATOM      5  C   UNL     1     101.335  21.143 195.085  1.00  0.00    -0.000 C 
BRANCH   5   6
ATOM      6  C   UNL     1     101.877  22.543 194.760  1.00  0.00    -0.000 C 
BRANCH   6   7
ATOM      7  C   UNL     1     103.037  22.516 193.747  1.00  0.00    -0.000 C 
BRANCH   7   8
ATOM      8  C   UNL     1     104.412  22.163 194.341  1.00  0.00    -0.000 C 
BRANCH   8   9
ATOM      9  C   UNL     1     104.784  23.032 195.551  1.00  0.00    -0.000 C 
BRANCH   9  10
ATOM     10  C   UNL     1     105.113  24.468 195.114  1.00  0.00    -0.000 C 
BRANCH  10  11
ATOM     11  C   UNL     1     104.488  25.525 196.038  1.00  0.00    -0.003 C 
ATOM     12  C   UNL     1     105.396  25.895 197.211  1.00  0.00     0.004 C 
ENDBRANCH  10  11
ENDBRANCH   9  10
ENDBRANCH   8   9
ENDBRANCH   7   8
ENDBRANCH   6   7
ENDBRANCH   5   6
ENDBRANCH   4   5
ENDBRANCH   3   4
ENDBRANCH   2   3
ENDBRANCH   1   2
BRANCH   1  13
ATOM     13  C   UNL     1     105.070  19.190 196.593  1.00  0.00     0.000 C 
BRANCH  13  14
ATOM     14  C   UNL     1     106.446  19.768 196.975  1.00  0.00     0.000 C 
BRANCH  14  15
ATOM     15  C   UNL     1     106.711  19.733 198.487  1.00  0.00     0.000 C 
BRANCH  15  16
ATOM     16  C   UNL     1     107.228  21.088 198.990  1.00  0.00     0.000 C 
BRANCH  16  17
ATOM     17  C   UNL     1     106.229  22.235 198.759  1.00  0.00     0.000 C 
BRANCH  17  18
ATOM     18  C   UNL     1     105.852  22.999 200.046  1.00  0.00     0.000 C 
BRANCH  18  19
ATOM     19  C   UNL     1     104.448  23.624 199.963  1.00  0.00     0.000 C 
BRANCH  19  20
ATOM     20  C   UNL     1     103.522  22.895 198.970  1.00  0.00     0.006 C 
BRANCH  20  21
ATOM     21  C   UNL     1     102.284  23.712 198.561  1.00  0.00     0.053 C 
BRANCH  21  22
ATOM     22  C   UNL     1     101.147  23.565 199.524  1.00  0.00     0.041 C 
ATOM     23  O   UNL     1      99.959  23.528 199.106  1.00  0.00    -0.550 OA
ATOM     24  O   UNL     1     101.401  23.451 200.886  1.00  0.00    -0.550 OA
ENDBRANCH  21  22
ENDBRANCH  20  21
ENDBRANCH  19  20
ENDBRANCH  18  19
ENDBRANCH  17  18
ENDBRANCH  16  17
ENDBRANCH  15  16
ENDBRANCH  14  15
ENDBRANCH  13  14
ENDBRANCH   1  13
TORSDOF 20
ENDMDL
MODEL 4
REMARK VINA RESULT:    -5.513      1.782      4.322
REMARK INTER + INTRA:         -15.565
REMARK INTER:                 -12.241
REMARK INTRA:                  -3.324
REMARK UNBOUND:                -3.606
REMARK SMILES CCCCCCCCCCCCCCCCCCCCCC(=O)[O-]
REMARK SMILES IDX 12 1 11 2 10 3 9 4 8 5 7 6 6 7 5 8 4 9 3 10 2 11 1 12 13 13
REMARK SMILES IDX 14 14 15 15 16 16 17 17 18 18 19 19 20 20 21 21 22 22 23 23
REMARK SMILES IDX 24 24
REMARK H PARENT
REMARK Flexibility Score: inf
ROOT
ATOM      1  C   UNL     1     101.760  23.350 200.515  1.00  0.00     0.000 C 
ENDROOT
BRANCH   1   2
ATOM      2  C   UNL     1     101.149  23.924 199.225  1.00  0.00     0.000 C 
BRANCH   2   3
ATOM      3  C   UNL     1     100.201  22.933 198.531  1.00  0.00     0.000 C 
BRANCH   3   4
ATOM      4  C   UNL     1     100.458  22.820 197.021  1.00  0.00    -0.000 C 
BRANCH   4   5
ATOM      5  C   UNL     1     100.596  21.352 196.598  1.00  0.00    -0.000 C 
BRANCH   5   6
ATOM      6  C   UNL     1     101.556  21.209 195.408  1.00  0.00    -0.000 C 
BRANCH   6   7
ATOM      7  C   UNL     1     102.118  22.560 194.926  1.00  0.00    -0.000 C 
BRANCH   7   8
ATOM      8  C   UNL     1     102.901  22.504 193.603  1.00  0.00    -0.000 C 
BRANCH   8   9
ATOM      9  C   UNL     1     104.423  22.445 193.809  1.00  0.00    -0.000 C 
BRANCH   9  10
ATOM     10  C   UNL     1     104.824  23.122 195.128  1.00  0.00    -0.000 C 
BRANCH  10  11
ATOM     11  C   UNL     1     105.159  24.611 194.952  1.00  0.00    -0.003 C 
ATOM     12  C   UNL     1     104.557  25.487 196.051  1.00  0.00     0.004 C 
ENDBRANCH  10  11
ENDBRANCH   9  10
ENDBRANCH   8   9
ENDBRANCH   7   8
ENDBRANCH   6   7
ENDBRANCH   5   6
ENDBRANCH   4   5
ENDBRANCH   3   4
ENDBRANCH   2   3
ENDBRANCH   1   2
BRANCH   1  13
ATOM     13  C   UNL     1     103.233  22.935 200.349  1.00  0.00     0.000 C 
BRANCH  13  14
ATOM     14  C   UNL     1     103.852  23.245 198.972  1.00  0.00     0.000 C 
BRANCH  14  15
ATOM     15  C   UNL     1     105.343  23.601 199.052  1.00  0.00     0.000 C 
BRANCH  15  16
ATOM     16  C   UNL     1     106.100  22.615 199.953  1.00  0.00     0.000 C 
BRANCH  16  17
ATOM     17  C   UNL     1     107.250  21.898 199.224  1.00  0.00     0.000 C 
BRANCH  17  18
ATOM     18  C   UNL     1     107.156  21.979 197.685  1.00  0.00     0.000 C 
BRANCH  18  19
ATOM     19  C   UNL     1     106.984  20.594 197.038  1.00  0.00     0.000 C 
BRANCH  19  20
ATOM     20  C   UNL     1     105.978  19.699 197.787  1.00  0.00     0.006 C 
BRANCH  20  21
ATOM     21  C   UNL     1     104.540  19.794 197.251  1.00  0.00     0.053 C 
BRANCH  21  22
ATOM     22  C   UNL     1     103.852  18.466 197.195  1.00  0.00     0.041 C 
ATOM     23  O   UNL     1     104.521  17.406 197.069  1.00  0.00    -0.550 OA
ATOM     24  O   UNL     1     102.468  18.396 197.301  1.00  0.00    -0.550 OA
ENDBRANCH  21  22
ENDBRANCH  20  21
ENDBRANCH  19  20
ENDBRANCH  18  19
ENDBRANCH  17  18
ENDBRANCH  16  17
ENDBRANCH  15  16
ENDBRANCH  14  15
ENDBRANCH  13  14
ENDBRANCH   1  13
TORSDOF 20
ENDMDL
MODEL 5
REMARK VINA RESULT:    -5.512      1.331      5.194
REMARK INTER + INTRA:         -15.563
REMARK INTER:                 -12.227
REMARK INTRA:                  -3.336
REMARK UNBOUND:                -3.606
REMARK SMILES CCCCCCCCCCCCCCCCCCCCCC(=O)[O-]
REMARK SMILES IDX 12 1 11 2 10 3 9 4 8 5 7 6 6 7 5 8 4 9 3 10 2 11 1 12 13 13
REMARK SMILES IDX 14 14 15 15 16 16 17 17 18 18 19 19 20 20 21 21 22 22 23 23
REMARK SMILES IDX 24 24
REMARK H PARENT
REMARK Flexibility Score: inf
ROOT
ATOM      1  C   UNL     1     105.466  25.326 195.870  1.00  0.00     0.000 C 
ENDROOT
BRANCH   1   2
ATOM      2  C   UNL     1     104.597  25.622 197.104  1.00  0.00     0.000 C 
BRANCH   2   3
ATOM      3  C   UNL     1     103.158  25.106 196.948  1.00  0.00     0.000 C 
BRANCH   3   4
ATOM      4  C   UNL     1     102.669  24.321 198.175  1.00  0.00    -0.000 C 
BRANCH   4   5
ATOM      5  C   UNL     1     103.502  23.049 198.379  1.00  0.00    -0.000 C 
BRANCH   5   6
ATOM      6  C   UNL     1     104.148  23.031 199.772  1.00  0.00    -0.000 C 
BRANCH   6   7
ATOM      7  C   UNL     1     105.668  23.275 199.731  1.00  0.00    -0.000 C 
BRANCH   7   8
ATOM      8  C   UNL     1     106.514  22.045 199.354  1.00  0.00    -0.000 C 
BRANCH   8   9
ATOM      9  C   UNL     1     107.009  22.082 197.900  1.00  0.00    -0.000 C 
BRANCH   9  10
ATOM     10  C   UNL     1     108.511  21.768 197.825  1.00  0.00    -0.000 C 
BRANCH  10  11
ATOM     11  C   UNL     1     108.878  20.923 196.595  1.00  0.00    -0.003 C 
ATOM     12  C   UNL     1     107.655  20.314 195.910  1.00  0.00     0.004 C 
ENDBRANCH  10  11
ENDBRANCH   9  10
ENDBRANCH   8   9
ENDBRANCH   7   8
ENDBRANCH   6   7
ENDBRANCH   5   6
ENDBRANCH   4   5
ENDBRANCH   3   4
ENDBRANCH   2   3
ENDBRANCH   1   2
BRANCH   1  13
ATOM     13  C   UNL     1     104.762  24.420 194.843  1.00  0.00     0.000 C 
BRANCH  13  14
ATOM     14  C   UNL     1     105.208  22.945 194.854  1.00  0.00     0.000 C 
BRANCH  14  15
ATOM     15  C   UNL     1     104.296  22.037 194.017  1.00  0.00     0.000 C 
BRANCH  15  16
ATOM     16  C   UNL     1     103.172  22.843 193.352  1.00  0.00     0.000 C 
BRANCH  16  17
ATOM     17  C   UNL     1     101.768  22.319 193.706  1.00  0.00     0.000 C 
BRANCH  17  18
ATOM     18  C   UNL     1     101.532  22.154 195.223  1.00  0.00     0.000 C 
BRANCH  18  19
ATOM     19  C   UNL     1     101.166  20.708 195.601  1.00  0.00     0.000 C 
BRANCH  19  20
ATOM     20  C   UNL     1     101.660  20.308 197.004  1.00  0.00     0.006 C 
BRANCH  20  21
ATOM     21  C   UNL     1     102.222  18.878 197.082  1.00  0.00     0.053 C 
BRANCH  21  22
ATOM     22  C   UNL     1     103.719  18.844 197.118  1.00  0.00     0.041 C 
ATOM     23  O   UNL     1     104.380  19.916 197.155  1.00  0.00    -0.550 OA
ATOM     24  O   UNL     1     104.386  17.625 197.130  1.00  0.00    -0.550 OA
ENDBRANCH  21  22
ENDBRANCH  20  21
ENDBRANCH  19  20
ENDBRANCH  18  19
ENDBRANCH  17  18
ENDBRANCH  16  17
ENDBRANCH  15  16
ENDBRANCH  14  15
ENDBRANCH  13  14
ENDBRANCH   1  13
TORSDOF 20
ENDMDL
MODEL 6
REMARK VINA RESULT:    -5.505      2.405      5.767
REMARK INTER + INTRA:         -15.549
REMARK INTER:                 -11.536
REMARK INTRA:                  -4.013
REMARK UNBOUND:                -3.606
REMARK SMILES CCCCCCCCCCCCCCCCCCCCCC(=O)[O-]
REMARK SMILES IDX 12 1 11 2 10 3 9 4 8 5 7 6 6 7 5 8 4 9 3 10 2 11 1 12 13 13
REMARK SMILES IDX 14 14 15 15 16 16 17 17 18 18 19 19 20 20 21 21 22 22 23 23
REMARK SMILES IDX 24 24
REMARK H PARENT
REMARK Flexibility Score: inf
ROOT
ATOM      1  C   UNL     1     102.728  24.395 198.054  1.00  0.00     0.000 C 
ENDROOT
BRANCH   1   2
ATOM      2  C   UNL     1     103.726  23.283 198.422  1.00  0.00     0.000 C 
BRANCH   2   3
ATOM      3  C   UNL     1     104.316  23.465 199.829  1.00  0.00     0.000 C 
BRANCH   3   4
ATOM      4  C   UNL     1     105.753  22.935 199.946  1.00  0.00    -0.000 C 
BRANCH   4   5
ATOM      5  C   UNL     1     106.189  22.245 198.646  1.00  0.00    -0.000 C 
BRANCH   5   6
ATOM      6  C   UNL     1     107.650  21.779 198.734  1.00  0.00    -0.000 C 
BRANCH   6   7
ATOM      7  C   UNL     1     108.275  21.504 197.354  1.00  0.00    -0.000 C 
BRANCH   7   8
ATOM      8  C   UNL     1     107.665  20.317 196.588  1.00  0.00    -0.000 C 
BRANCH   8   9
ATOM      9  C   UNL     1     107.552  19.046 197.444  1.00  0.00    -0.000 C 
BRANCH   9  10
ATOM     10  C   UNL     1     106.080  18.690 197.705  1.00  0.00    -0.000 C 
BRANCH  10  11
ATOM     11  C   UNL     1     105.128  19.314 196.674  1.00  0.00    -0.003 C 
ATOM     12  C   UNL     1     103.758  19.652 197.262  1.00  0.00     0.004 C 
ENDBRANCH  10  11
ENDBRANCH   9  10
ENDBRANCH   8   9
ENDBRANCH   7   8
ENDBRANCH   6   7
ENDBRANCH   5   6
ENDBRANCH   4   5
ENDBRANCH   3   4
ENDBRANCH   2   3
ENDBRANCH   1   2
BRANCH   1  13
ATOM     13  C   UNL     1     103.284  25.379 197.008  1.00  0.00     0.000 C 
BRANCH  13  14
ATOM     14  C   UNL     1     104.789  25.238 196.709  1.00  0.00     0.000 C 
BRANCH  14  15
ATOM     15  C   UNL     1     105.075  24.781 195.272  1.00  0.00     0.000 C 
BRANCH  15  16
ATOM     16  C   UNL     1     105.742  23.398 195.252  1.00  0.00     0.000 C 
BRANCH  16  17
ATOM     17  C   UNL     1     104.858  22.316 194.606  1.00  0.00     0.000 C 
BRANCH  17  18
ATOM     18  C   UNL     1     103.950  22.849 193.477  1.00  0.00     0.000 C 
BRANCH  18  19
ATOM     19  C   UNL     1     102.469  22.504 193.709  1.00  0.00     0.000 C 
BRANCH  19  20
ATOM     20  C   UNL     1     102.166  22.089 195.162  1.00  0.00     0.006 C 
BRANCH  20  21
ATOM     21  C   UNL     1     100.789  22.551 195.667  1.00  0.00     0.053 C 
BRANCH  21  22
ATOM     22  C   UNL     1     100.303  21.753 196.837  1.00  0.00     0.041 C 
ATOM     23  O   UNL     1      99.958  22.331 197.902  1.00  0.00    -0.550 OA
ATOM     24  O   UNL     1     100.213  20.370 196.745  1.00  0.00    -0.550 OA
ENDBRANCH  21  22
ENDBRANCH  20  21
ENDBRANCH  19  20
ENDBRANCH  18  19
ENDBRANCH  17  18
ENDBRANCH  16  17
ENDBRANCH  15  16
ENDBRANCH  14  15
ENDBRANCH  13  14
ENDBRANCH   1  13
TORSDOF 20
ENDMDL
MODEL 7
REMARK VINA RESULT:    -5.484      2.673      6.157
REMARK INTER + INTRA:         -15.502
REMARK INTER:                 -12.539
REMARK INTRA:                  -2.963
REMARK UNBOUND:                -3.606
REMARK SMILES CCCCCCCCCCCCCCCCCCCCCC(=O)[O-]
REMARK SMILES IDX 12 1 11 2 10 3 9 4 8 5 7 6 6 7 5 8 4 9 3 10 2 11 1 12 13 13
REMARK SMILES IDX 14 14 15 15 16 16 17 17 18 18 19 19 20 20 21 21 22 22 23 23
REMARK SMILES IDX 24 24
REMARK H PARENT
REMARK Flexibility Score: inf
ROOT
ATOM      1  C   UNL     1     103.467  23.103 198.666  1.00  0.00     0.000 C 
ENDROOT
BRANCH   1   2
ATOM      2  C   UNL     1     104.036  23.254 200.087  1.00  0.00     0.000 C 
BRANCH   2   3
ATOM      3  C   UNL     1     105.572  23.286 200.105  1.00  0.00     0.000 C 
BRANCH   3   4
ATOM      4  C   UNL     1     106.198  22.548 198.912  1.00  0.00    -0.000 C 
BRANCH   4   5
ATOM      5  C   UNL     1     106.978  21.312 199.380  1.00  0.00    -0.000 C 
BRANCH   5   6
ATOM      6  C   UNL     1     106.744  20.123 198.436  1.00  0.00    -0.000 C 
BRANCH   6   7
ATOM      7  C   UNL     1     106.279  20.555 197.033  1.00  0.00    -0.000 C 
BRANCH   7   8
ATOM      8  C   UNL     1     107.392  20.632 195.973  1.00  0.00    -0.000 C 
BRANCH   8   9
ATOM      9  C   UNL     1     108.798  20.727 196.586  1.00  0.00    -0.000 C 
BRANCH   9  10
ATOM     10  C   UNL     1     109.740  19.686 195.962  1.00  0.00    -0.000 C 
BRANCH  10  11
ATOM     11  C   UNL     1     110.951  20.326 195.266  1.00  0.00    -0.003 C 
ATOM     12  C   UNL     1     110.744  20.500 193.761  1.00  0.00     0.004 C 
ENDBRANCH  10  11
ENDBRANCH   9  10
ENDBRANCH   8   9
ENDBRANCH   7   8
ENDBRANCH   6   7
ENDBRANCH   5   6
ENDBRANCH   4   5
ENDBRANCH   3   4
ENDBRANCH   2   3
ENDBRANCH   1   2
BRANCH   1  13
ATOM     13  C   UNL     1     102.502  24.240 198.282  1.00  0.00     0.000 C 
BRANCH  13  14
ATOM     14  C   UNL     1     102.976  25.140 197.125  1.00  0.00     0.000 C 
BRANCH  14  15
ATOM     15  C   UNL     1     104.479  25.446 197.181  1.00  0.00     0.000 C 
BRANCH  15  16
ATOM     16  C   UNL     1     105.125  25.306 195.796  1.00  0.00     0.000 C 
BRANCH  16  17
ATOM     17  C   UNL     1     105.424  23.843 195.419  1.00  0.00     0.000 C 
BRANCH  17  18
ATOM     18  C   UNL     1     104.661  23.356 194.169  1.00  0.00     0.000 C 
BRANCH  18  19
ATOM     19  C   UNL     1     103.780  22.130 194.466  1.00  0.00     0.000 C 
BRANCH  19  20
ATOM     20  C   UNL     1     102.277  22.405 194.264  1.00  0.00     0.006 C 
BRANCH  20  21
ATOM     21  C   UNL     1     101.361  21.323 194.862  1.00  0.00     0.053 C 
BRANCH  21  22
ATOM     22  C   UNL     1     100.827  21.695 196.210  1.00  0.00     0.041 C 
ATOM     23  O   UNL     1     101.048  20.958 197.208  1.00  0.00    -0.550 OA
ATOM     24  O   UNL     1     100.099  22.868 196.370  1.00  0.00    -0.550 OA
ENDBRANCH  21  22
ENDBRANCH  20  21
ENDBRANCH  19  20
ENDBRANCH  18  19
ENDBRANCH  17  18
ENDBRANCH  16  17
ENDBRANCH  15  16
ENDBRANCH  14  15
ENDBRANCH  13  14
ENDBRANCH   1  13
TORSDOF 20
ENDMDL
MODEL 8
REMARK VINA RESULT:    -5.477      1.638      4.558
REMARK INTER + INTRA:         -15.487
REMARK INTER:                 -12.030
REMARK INTRA:                  -3.457
REMARK UNBOUND:                -3.606
REMARK SMILES CCCCCCCCCCCCCCCCCCCCCC(=O)[O-]
REMARK SMILES IDX 12 1 11 2 10 3 9 4 8 5 7 6 6 7 5 8 4 9 3 10 2 11 1 12 13 13
REMARK SMILES IDX 14 14 15 15 16 16 17 17 18 18 19 19 20 20 21 21 22 22 23 23
REMARK SMILES IDX 24 24
REMARK H PARENT
REMARK Flexibility Score: inf
ROOT
ATOM      1  C   UNL     1     101.445  23.651 199.424  1.00  0.00     0.000 C 
ENDROOT
BRANCH   1   2
ATOM      2  C   UNL     1     102.524  22.666 199.906  1.00  0.00     0.000 C 
BRANCH   2   3
ATOM      3  C   UNL     1     103.937  23.267 199.852  1.00  0.00     0.000 C 
BRANCH   3   4
ATOM      4  C   UNL     1     104.553  23.216 198.445  1.00  0.00    -0.000 C 
BRANCH   4   5
ATOM      5  C   UNL     1     105.060  24.599 198.019  1.00  0.00    -0.000 C 
BRANCH   5   6
ATOM      6  C   UNL     1     105.700  24.545 196.624  1.00  0.00    -0.000 C 
BRANCH   6   7
ATOM      7  C   UNL     1     105.222  23.341 195.791  1.00  0.00    -0.000 C 
BRANCH   7   8
ATOM      8  C   UNL     1     104.311  23.694 194.602  1.00  0.00    -0.000 C 
BRANCH   8   9
ATOM      9  C   UNL     1     104.369  22.652 193.474  1.00  0.00    -0.000 C 
BRANCH   9  10
ATOM     10  C   UNL     1     105.366  21.533 193.811  1.00  0.00    -0.000 C 
BRANCH  10  11
ATOM     11  C   UNL     1     106.105  21.006 192.571  1.00  0.00    -0.003 C 
ATOM     12  C   UNL     1     107.625  21.076 192.715  1.00  0.00     0.004 C 
ENDBRANCH  10  11
ENDBRANCH   9  10
ENDBRANCH   8   9
ENDBRANCH   7   8
ENDBRANCH   6   7
ENDBRANCH   5   6
ENDBRANCH   4   5
ENDBRANCH   3   4
ENDBRANCH   2   3
ENDBRANCH   1   2
BRANCH   1  13
ATOM     13  C   UNL     1     100.754  23.196 198.125  1.00  0.00     0.000 C 
BRANCH  13  14
ATOM     14  C   UNL     1     101.594  23.358 196.843  1.00  0.00     0.000 C 
BRANCH  14  15
ATOM     15  C   UNL     1     100.951  22.694 195.618  1.00  0.00     0.000 C 
BRANCH  15  16
ATOM     16  C   UNL     1     101.280  21.195 195.564  1.00  0.00     0.000 C 
BRANCH  16  17
ATOM     17  C   UNL     1     102.557  20.833 196.343  1.00  0.00     0.000 C 
BRANCH  17  18
ATOM     18  C   UNL     1     102.381  19.636 197.301  1.00  0.00     0.000 C 
BRANCH  18  19
ATOM     19  C   UNL     1     103.678  18.824 197.464  1.00  0.00     0.000 C 
BRANCH  19  20
ATOM     20  C   UNL     1     104.936  19.605 197.038  1.00  0.00     0.006 C 
BRANCH  20  21
ATOM     21  C   UNL     1     106.187  19.270 197.868  1.00  0.00     0.053 C 
BRANCH  21  22
ATOM     22  C   UNL     1     106.943  20.489 198.296  1.00  0.00     0.041 C 
ATOM     23  O   UNL     1     107.423  21.276 197.437  1.00  0.00    -0.550 OA
ATOM     24  O   UNL     1     107.103  20.767 199.648  1.00  0.00    -0.550 OA
ENDBRANCH  21  22
ENDBRANCH  20  21
ENDBRANCH  19  20
ENDBRANCH  18  19
ENDBRANCH  17  18
ENDBRANCH  16  17
ENDBRANCH  15  16
ENDBRANCH  14  15
ENDBRANCH  13  14
ENDBRANCH   1  13
TORSDOF 20
ENDMDL
MODEL 9
REMARK VINA RESULT:    -5.471      2.780      5.881
REMARK INTER + INTRA:         -15.473
REMARK INTER:                 -11.971
REMARK INTRA:                  -3.502
REMARK UNBOUND:                -3.606
REMARK SMILES CCCCCCCCCCCCCCCCCCCCCC(=O)[O-]
REMARK SMILES IDX 12 1 11 2 10 3 9 4 8 5 7 6 6 7 5 8 4 9 3 10 2 11 1 12 13 13
REMARK SMILES IDX 14 14 15 15 16 16 17 17 18 18 19 19 20 20 21 21 22 22 23 23
REMARK SMILES IDX 24 24
REMARK H PARENT
REMARK Flexibility Score: inf
ROOT
ATOM      1  C   UNL     1     101.885  22.204 195.040  1.00  0.00     0.000 C 
ENDROOT
BRANCH   1   2
ATOM      2  C   UNL     1     101.215  20.823 195.147  1.00  0.00     0.000 C 
BRANCH   2   3
ATOM      3  C   UNL     1     101.334  20.220 196.556  1.00  0.00     0.000 C 
BRANCH   3   4
ATOM      4  C   UNL     1     102.739  20.379 197.156  1.00  0.00    -0.000 C 
BRANCH   4   5
ATOM      5  C   UNL     1     103.465  19.029 197.216  1.00  0.00    -0.000 C 
BRANCH   5   6
ATOM      6  C   UNL     1     104.918  19.163 196.737  1.00  0.00    -0.000 C 
BRANCH   6   7
ATOM      7  C   UNL     1     105.943  18.918 197.859  1.00  0.00    -0.000 C 
BRANCH   7   8
ATOM      8  C   UNL     1     107.342  19.506 197.601  1.00  0.00    -0.000 C 
BRANCH   8   9
ATOM      9  C   UNL     1     107.337  21.038 197.488  1.00  0.00    -0.000 C 
BRANCH   9  10
ATOM     10  C   UNL     1     107.221  21.690 198.875  1.00  0.00    -0.000 C 
BRANCH  10  11
ATOM     11  C   UNL     1     105.792  22.158 199.190  1.00  0.00    -0.003 C 
ATOM     12  C   UNL     1     105.759  23.365 200.128  1.00  0.00     0.004 C 
ENDBRANCH  10  11
ENDBRANCH   9  10
ENDBRANCH   8   9
ENDBRANCH   7   8
ENDBRANCH   6   7
ENDBRANCH   5   6
ENDBRANCH   4   5
ENDBRANCH   3   4
ENDBRANCH   2   3
ENDBRANCH   1   2
BRANCH   1  13
ATOM     13  C   UNL     1     102.288  22.565 193.598  1.00  0.00     0.000 C 
BRANCH  13  14
ATOM     14  C   UNL     1     103.803  22.565 193.321  1.00  0.00     0.000 C 
BRANCH  14  15
ATOM     15  C   UNL     1     104.638  22.189 194.553  1.00  0.00     0.000 C 
BRANCH  15  16
ATOM     16  C   UNL     1     105.406  23.403 195.093  1.00  0.00     0.000 C 
BRANCH  16  17
ATOM     17  C   UNL     1     104.926  23.845 196.487  1.00  0.00     0.000 C 
BRANCH  17  18
ATOM     18  C   UNL     1     104.178  25.195 196.487  1.00  0.00     0.000 C 
BRANCH  18  19
ATOM     19  C   UNL     1     102.786  25.090 197.136  1.00  0.00     0.000 C 
BRANCH  19  20
ATOM     20  C   UNL     1     102.610  23.815 197.983  1.00  0.00     0.006 C 
BRANCH  20  21
ATOM     21  C   UNL     1     101.996  24.069 199.370  1.00  0.00     0.053 C 
BRANCH  21  22
ATOM     22  C   UNL     1     100.548  23.695 199.441  1.00  0.00     0.041 C 
ATOM     23  O   UNL     1      99.830  24.105 200.392  1.00  0.00    -0.550 OA
ATOM     24  O   UNL     1      99.985  22.907 198.445  1.00  0.00    -0.550 OA
ENDBRANCH  21  22
ENDBRANCH  20  21
ENDBRANCH  19  20
ENDBRANCH  18  19
ENDBRANCH  17  18
ENDBRANCH  16  17
ENDBRANCH  15  16
ENDBRANCH  14  15
ENDBRANCH  13  14
ENDBRANCH   1  13
TORSDOF 20
ENDMDL
