MODEL 1
REMARK VINA RESULT:    -6.024      0.000      0.000
REMARK INTER + INTRA:         -20.203
REMARK INTER:                 -15.181
REMARK INTRA:                  -5.022
REMARK UNBOUND:                -5.022
REMARK SMILES CCCCCCCCCCCCCCCCCCCCCCCCCCCC(=O)[O-]
REMARK SMILES IDX 15 1 16 2 17 3 18 4 19 5 20 6 21 7 22 8 23 9 24 10 25 11
REMARK SMILES IDX 26 12 27 13 28 14 29 15 30 16 14 17 13 18 12 19 11 20 10 21
REMARK SMILES IDX 9 22 8 23 7 24 6 25 5 26 4 27 3 28 2 29 1 30
REMARK H PARENT
REMARK Flexibility Score: inf
ROOT
ATOM      1  C   UNL     1      -8.460  -3.825  12.862  1.00  0.00     0.000 C 
ENDROOT
BRANCH   1   2
ATOM      2  C   UNL     1      -7.794  -5.170  12.521  1.00  0.00     0.000 C 
BRANCH   2   3
ATOM      3  C   UNL     1      -8.698  -6.091  11.689  1.00  0.00     0.000 C 
BRANCH   3   4
ATOM      4  C   UNL     1      -9.995  -5.374  11.293  1.00  0.00     0.000 C 
BRANCH   4   5
ATOM      5  C   UNL     1     -10.379  -5.696   9.841  1.00  0.00     0.000 C 
BRANCH   5   6
ATOM      6  C   UNL     1     -11.876  -5.483   9.564  1.00  0.00     0.000 C 
BRANCH   6   7
ATOM      7  C   UNL     1     -12.670  -5.132  10.835  1.00  0.00     0.000 C 
BRANCH   7   8
ATOM      8  C   UNL     1     -13.737  -4.055  10.585  1.00  0.00     0.000 C 
BRANCH   8   9
ATOM      9  C   UNL     1     -14.808  -4.019  11.690  1.00  0.00     0.000 C 
BRANCH   9  10
ATOM     10  C   UNL     1     -14.233  -4.349  13.077  1.00  0.00     0.000 C 
BRANCH  10  11
ATOM     11  C   UNL     1     -14.465  -3.220  14.095  1.00  0.00     0.000 C 
BRANCH  11  12
ATOM     12  C   UNL     1     -13.795  -1.894  13.691  1.00  0.00     0.006 C 
BRANCH  12  13
ATOM     13  C   UNL     1     -12.299  -2.029  13.356  1.00  0.00     0.053 C 
BRANCH  13  14
ATOM     14  C   UNL     1     -11.885  -1.154  12.212  1.00  0.00     0.041 C 
ATOM     15  O   UNL     1     -12.751  -0.515  11.558  1.00  0.00    -0.550 OA
ATOM     16  O   UNL     1     -10.540  -1.011  11.892  1.00  0.00    -0.550 OA
ENDBRANCH  13  14
ENDBRANCH  12  13
ENDBRANCH  11  12
ENDBRANCH  10  11
ENDBRANCH   9  10
ENDBRANCH   8   9
ENDBRANCH   7   8
ENDBRANCH   6   7
ENDBRANCH   5   6
ENDBRANCH   4   5
ENDBRANCH   3   4
ENDBRANCH   2   3
ENDBRANCH   1   2
BRANCH   1  17
ATOM     17  C   UNL     1      -7.500  -2.620  12.932  1.00  0.00     0.000 C 
BRANCH  17  18
ATOM     18  C   UNL     1      -7.547  -1.823  14.251  1.00  0.00     0.000 C 
BRANCH  18  19
ATOM     19  C   UNL     1      -6.245  -1.852  15.076  1.00  0.00     0.000 C 
BRANCH  19  20
ATOM     20  C   UNL     1      -6.331  -2.635  16.399  1.00  0.00     0.000 C 
BRANCH  20  21
ATOM     21  C   UNL     1      -7.696  -3.314  16.603  1.00  0.00     0.000 C 
BRANCH  21  22
ATOM     22  C   UNL     1      -8.192  -3.214  18.055  1.00  0.00    -0.000 C 
BRANCH  22  23
ATOM     23  C   UNL     1      -9.591  -2.581  18.153  1.00  0.00    -0.000 C 
BRANCH  23  24
ATOM     24  C   UNL     1     -10.354  -2.629  16.820  1.00  0.00    -0.000 C 
BRANCH  24  25
ATOM     25  C   UNL     1     -11.795  -3.146  16.979  1.00  0.00    -0.000 C 
BRANCH  25  26
ATOM     26  C   UNL     1     -12.035  -4.458  16.202  1.00  0.00    -0.000 C 
BRANCH  26  27
ATOM     27  C   UNL     1     -10.891  -4.829  15.239  1.00  0.00    -0.000 C 
BRANCH  27  28
ATOM     28  C   UNL     1     -10.206  -6.174  15.536  1.00  0.00    -0.000 C 
BRANCH  28  29
ATOM     29  C   UNL     1     -11.101  -7.380  15.217  1.00  0.00    -0.003 C 
ATOM     30  C   UNL     1     -11.538  -7.369  13.756  1.00  0.00     0.004 C 
ENDBRANCH  28  29
ENDBRANCH  27  28
ENDBRANCH  26  27
ENDBRANCH  25  26
ENDBRANCH  24  25
ENDBRANCH  23  24
ENDBRANCH  22  23
ENDBRANCH  21  22
ENDBRANCH  20  21
ENDBRANCH  19  20
ENDBRANCH  18  19
ENDBRANCH  17  18
ENDBRANCH   1  17
TORSDOF 26
ENDMDL
MODEL 2
REMARK VINA RESULT:    -5.943      2.162      5.422
REMARK INTER + INTRA:         -19.998
REMARK INTER:                 -15.339
REMARK INTRA:                  -4.659
REMARK UNBOUND:                -5.022
REMARK SMILES CCCCCCCCCCCCCCCCCCCCCCCCCCCC(=O)[O-]
REMARK SMILES IDX 15 1 16 2 17 3 18 4 19 5 20 6 21 7 22 8 23 9 24 10 25 11
REMARK SMILES IDX 26 12 27 13 28 14 29 15 30 16 14 17 13 18 12 19 11 20 10 21
REMARK SMILES IDX 9 22 8 23 7 24 6 25 5 26 4 27 3 28 2 29 1 30
REMARK H PARENT
REMARK Flexibility Score: inf
ROOT
ATOM      1  C   UNL     1      -7.662  -5.413  12.123  1.00  0.00     0.000 C 
ENDROOT
BRANCH   1   2
ATOM      2  C   UNL     1      -8.919  -5.998  11.455  1.00  0.00     0.000 C 
BRANCH   2   3
ATOM      3  C   UNL     1     -10.160  -5.934  12.357  1.00  0.00     0.000 C 
BRANCH   3   4
ATOM      4  C   UNL     1     -10.263  -7.186  13.237  1.00  0.00     0.000 C 
BRANCH   4   5
ATOM      5  C   UNL     1     -11.285  -6.981  14.366  1.00  0.00     0.000 C 
BRANCH   5   6
ATOM      6  C   UNL     1     -10.625  -6.574  15.694  1.00  0.00     0.000 C 
BRANCH   6   7
ATOM      7  C   UNL     1     -10.503  -5.047  15.852  1.00  0.00     0.000 C 
BRANCH   7   8
ATOM      8  C   UNL     1     -11.833  -4.388  16.249  1.00  0.00     0.000 C 
BRANCH   8   9
ATOM      9  C   UNL     1     -11.632  -3.059  16.998  1.00  0.00     0.000 C 
BRANCH   9  10
ATOM     10  C   UNL     1     -10.158  -2.625  17.039  1.00  0.00     0.000 C 
BRANCH  10  11
ATOM     11  C   UNL     1      -9.565  -2.685  18.458  1.00  0.00     0.000 C 
BRANCH  11  12
ATOM     12  C   UNL     1      -8.071  -3.056  18.473  1.00  0.00     0.006 C 
BRANCH  12  13
ATOM     13  C   UNL     1      -7.406  -3.019  17.086  1.00  0.00     0.053 C 
BRANCH  13  14
ATOM     14  C   UNL     1      -5.984  -2.547  17.143  1.00  0.00     0.041 C 
ATOM     15  O   UNL     1      -5.457  -2.004  16.137  1.00  0.00    -0.550 OA
ATOM     16  O   UNL     1      -5.253  -2.669  18.318  1.00  0.00    -0.550 OA
ENDBRANCH  13  14
ENDBRANCH  12  13
ENDBRANCH  11  12
ENDBRANCH  10  11
ENDBRANCH   9  10
ENDBRANCH   8   9
ENDBRANCH   7   8
ENDBRANCH   6   7
ENDBRANCH   5   6
ENDBRANCH   4   5
ENDBRANCH   3   4
ENDBRANCH   2   3
ENDBRANCH   1   2
BRANCH   1  17
ATOM     17  C   UNL     1      -7.925  -4.257  13.109  1.00  0.00     0.000 C 
BRANCH  17  18
ATOM     18  C   UNL     1      -7.087  -2.986  12.865  1.00  0.00     0.000 C 
BRANCH  18  19
ATOM     19  C   UNL     1      -7.599  -1.720  13.580  1.00  0.00     0.000 C 
BRANCH  19  20
ATOM     20  C   UNL     1      -9.103  -1.725  13.912  1.00  0.00     0.000 C 
BRANCH  20  21
ATOM     21  C   UNL     1      -9.940  -0.928  12.897  1.00  0.00     0.000 C 
BRANCH  21  22
ATOM     22  C   UNL     1     -10.964  -1.808  12.161  1.00  0.00    -0.000 C 
BRANCH  22  23
ATOM     23  C   UNL     1     -11.805  -2.662  13.127  1.00  0.00    -0.000 C 
BRANCH  23  24
ATOM     24  C   UNL     1     -13.244  -2.142  13.272  1.00  0.00    -0.000 C 
BRANCH  24  25
ATOM     25  C   UNL     1     -14.208  -3.209  13.820  1.00  0.00    -0.000 C 
BRANCH  25  26
ATOM     26  C   UNL     1     -14.686  -4.184  12.723  1.00  0.00    -0.000 C 
BRANCH  26  27
ATOM     27  C   UNL     1     -14.819  -3.537  11.330  1.00  0.00    -0.000 C 
BRANCH  27  28
ATOM     28  C   UNL     1     -14.216  -4.355  10.177  1.00  0.00    -0.000 C 
BRANCH  28  29
ATOM     29  C   UNL     1     -12.952  -5.124  10.590  1.00  0.00    -0.003 C 
ATOM     30  C   UNL     1     -12.227  -5.685   9.371  1.00  0.00     0.004 C 
ENDBRANCH  28  29
ENDBRANCH  27  28
ENDBRANCH  26  27
ENDBRANCH  25  26
ENDBRANCH  24  25
ENDBRANCH  23  24
ENDBRANCH  22  23
ENDBRANCH  21  22
ENDBRANCH  20  21
ENDBRANCH  19  20
ENDBRANCH  18  19
ENDBRANCH  17  18
ENDBRANCH   1  17
TORSDOF 26
ENDMDL
MODEL 3
REMARK VINA RESULT:    -5.852      2.251      5.473
REMARK INTER + INTRA:         -19.769
REMARK INTER:                 -14.443
REMARK INTRA:                  -5.326
REMARK UNBOUND:                -5.022
REMARK SMILES CCCCCCCCCCCCCCCCCCCCCCCCCCCC(=O)[O-]
REMARK SMILES IDX 15 1 16 2 17 3 18 4 19 5 20 6 21 7 22 8 23 9 24 10 25 11
REMARK SMILES IDX 26 12 27 13 28 14 29 15 30 16 14 17 13 18 12 19 11 20 10 21
REMARK SMILES IDX 9 22 8 23 7 24 6 25 5 26 4 27 3 28 2 29 1 30
REMARK H PARENT
REMARK Flexibility Score: inf
ROOT
ATOM      1  C   UNL     1      -9.832  -0.804  13.159  1.00  0.00     0.000 C 
ENDROOT
BRANCH   1   2
ATOM      2  C   UNL     1     -10.894  -1.799  12.659  1.00  0.00     0.000 C 
BRANCH   2   3
ATOM      3  C   UNL     1     -12.054  -1.115  11.921  1.00  0.00     0.000 C 
BRANCH   3   4
ATOM      4  C   UNL     1     -13.384  -1.814  12.225  1.00  0.00     0.000 C 
BRANCH   4   5
ATOM      5  C   UNL     1     -13.690  -1.784  13.730  1.00  0.00     0.000 C 
BRANCH   5   6
ATOM      6  C   UNL     1     -13.946  -3.184  14.310  1.00  0.00     0.000 C 
BRANCH   6   7
ATOM      7  C   UNL     1     -13.442  -3.328  15.758  1.00  0.00     0.000 C 
BRANCH   7   8
ATOM      8  C   UNL     1     -11.909  -3.338  15.850  1.00  0.00     0.000 C 
BRANCH   8   9
ATOM      9  C   UNL     1     -11.398  -2.877  17.226  1.00  0.00     0.000 C 
BRANCH   9  10
ATOM     10  C   UNL     1      -9.908  -2.499  17.204  1.00  0.00     0.000 C 
BRANCH  10  11
ATOM     11  C   UNL     1      -9.153  -3.002  18.447  1.00  0.00     0.000 C 
BRANCH  11  12
ATOM     12  C   UNL     1      -7.624  -2.971  18.278  1.00  0.00     0.006 C 
BRANCH  12  13
ATOM     13  C   UNL     1      -7.159  -2.945  16.811  1.00  0.00     0.053 C 
BRANCH  13  14
ATOM     14  C   UNL     1      -5.757  -2.436  16.661  1.00  0.00     0.041 C 
ATOM     15  O   UNL     1      -5.497  -1.540  15.816  1.00  0.00    -0.550 OA
ATOM     16  O   UNL     1      -4.746  -2.921  17.481  1.00  0.00    -0.550 OA
ENDBRANCH  13  14
ENDBRANCH  12  13
ENDBRANCH  11  12
ENDBRANCH  10  11
ENDBRANCH   9  10
ENDBRANCH   8   9
ENDBRANCH   7   8
ENDBRANCH   6   7
ENDBRANCH   5   6
ENDBRANCH   4   5
ENDBRANCH   3   4
ENDBRANCH   2   3
ENDBRANCH   1   2
BRANCH   1  17
ATOM     17  C   UNL     1      -8.571  -1.447  13.771  1.00  0.00     0.000 C 
BRANCH  17  18
ATOM     18  C   UNL     1      -7.840  -2.450  12.858  1.00  0.00     0.000 C 
BRANCH  18  19
ATOM     19  C   UNL     1      -7.611  -3.845  13.474  1.00  0.00     0.000 C 
BRANCH  19  20
ATOM     20  C   UNL     1      -8.867  -4.507  14.070  1.00  0.00     0.000 C 
BRANCH  20  21
ATOM     21  C   UNL     1      -8.543  -5.755  14.907  1.00  0.00     0.000 C 
BRANCH  21  22
ATOM     22  C   UNL     1      -9.557  -5.982  16.041  1.00  0.00    -0.000 C 
BRANCH  22  23
ATOM     23  C   UNL     1     -10.868  -6.611  15.536  1.00  0.00    -0.000 C 
BRANCH  23  24
ATOM     24  C   UNL     1     -10.628  -7.718  14.497  1.00  0.00    -0.000 C 
BRANCH  24  25
ATOM     25  C   UNL     1     -11.417  -7.492  13.195  1.00  0.00    -0.000 C 
BRANCH  25  26
ATOM     26  C   UNL     1     -12.263  -6.200  13.241  1.00  0.00    -0.000 C 
BRANCH  26  27
ATOM     27  C   UNL     1     -11.868  -5.161  12.174  1.00  0.00    -0.000 C 
BRANCH  27  28
ATOM     28  C   UNL     1     -12.466  -5.406  10.779  1.00  0.00    -0.000 C 
BRANCH  28  29
ATOM     29  C   UNL     1     -11.394  -5.628   9.702  1.00  0.00    -0.003 C 
ATOM     30  C   UNL     1      -9.996  -5.626  10.312  1.00  0.00     0.004 C 
ENDBRANCH  28  29
ENDBRANCH  27  28
ENDBRANCH  26  27
ENDBRANCH  25  26
ENDBRANCH  24  25
ENDBRANCH  23  24
ENDBRANCH  22  23
ENDBRANCH  21  22
ENDBRANCH  20  21
ENDBRANCH  19  20
ENDBRANCH  18  19
ENDBRANCH  17  18
ENDBRANCH   1  17
TORSDOF 26
ENDMDL
MODEL 4
REMARK VINA RESULT:    -5.832      2.079      6.123
REMARK INTER + INTRA:         -19.719
REMARK INTER:                 -14.779
REMARK INTRA:                  -4.940
REMARK UNBOUND:                -5.022
REMARK SMILES CCCCCCCCCCCCCCCCCCCCCCCCCCCC(=O)[O-]
REMARK SMILES IDX 15 1 16 2 17 3 18 4 19 5 20 6 21 7 22 8 23 9 24 10 25 11
REMARK SMILES IDX 26 12 27 13 28 14 29 15 30 16 14 17 13 18 12 19 11 20 10 21
REMARK SMILES IDX 9 22 8 23 7 24 6 25 5 26 4 27 3 28 2 29 1 30
REMARK H PARENT
REMARK Flexibility Score: inf
ROOT
ATOM      1  C   UNL     1      -8.022  -1.096  13.333  1.00  0.00     0.000 C 
ENDROOT
BRANCH   1   2
ATOM      2  C   UNL     1      -7.845  -2.607  13.106  1.00  0.00     0.000 C 
BRANCH   2   3
ATOM      3  C   UNL     1      -7.497  -3.369  14.393  1.00  0.00     0.000 C 
BRANCH   3   4
ATOM      4  C   UNL     1      -6.505  -2.574  15.250  1.00  0.00     0.000 C 
BRANCH   4   5
ATOM      5  C   UNL     1      -6.701  -2.878  16.743  1.00  0.00     0.000 C 
BRANCH   5   6
ATOM      6  C   UNL     1      -8.098  -3.439  17.053  1.00  0.00     0.000 C 
BRANCH   6   7
ATOM      7  C   UNL     1      -8.687  -2.877  18.359  1.00  0.00     0.000 C 
BRANCH   7   8
ATOM      8  C   UNL     1     -10.192  -2.586  18.250  1.00  0.00     0.000 C 
BRANCH   8   9
ATOM      9  C   UNL     1     -10.724  -2.763  16.817  1.00  0.00     0.000 C 
BRANCH   9  10
ATOM     10  C   UNL     1     -12.102  -3.443  16.781  1.00  0.00     0.000 C 
BRANCH  10  11
ATOM     11  C   UNL     1     -12.083  -4.773  16.009  1.00  0.00     0.000 C 
BRANCH  11  12
ATOM     12  C   UNL     1     -10.832  -4.944  15.129  1.00  0.00     0.006 C 
BRANCH  12  13
ATOM     13  C   UNL     1     -10.108  -6.287  15.328  1.00  0.00     0.053 C 
BRANCH  13  14
ATOM     14  C   UNL     1     -10.735  -7.400  14.543  1.00  0.00     0.041 C 
ATOM     15  O   UNL     1     -10.557  -8.597  14.890  1.00  0.00    -0.550 OA
ATOM     16  O   UNL     1     -11.548  -7.114  13.453  1.00  0.00    -0.550 OA
ENDBRANCH  13  14
ENDBRANCH  12  13
ENDBRANCH  11  12
ENDBRANCH  10  11
ENDBRANCH   9  10
ENDBRANCH   8   9
ENDBRANCH   7   8
ENDBRANCH   6   7
ENDBRANCH   5   6
ENDBRANCH   4   5
ENDBRANCH   3   4
ENDBRANCH   2   3
ENDBRANCH   1   2
BRANCH   1  17
ATOM     17  C   UNL     1      -9.481  -0.597  13.304  1.00  0.00     0.000 C 
BRANCH  17  18
ATOM     18  C   UNL     1     -10.474  -1.525  12.577  1.00  0.00     0.000 C 
BRANCH  18  19
ATOM     19  C   UNL     1     -11.644  -0.806  11.877  1.00  0.00     0.000 C 
BRANCH  19  20
ATOM     20  C   UNL     1     -13.043  -1.179  12.401  1.00  0.00     0.000 C 
BRANCH  20  21
ATOM     21  C   UNL     1     -12.993  -2.054  13.665  1.00  0.00     0.000 C 
BRANCH  21  22
ATOM     22  C   UNL     1     -14.349  -2.706  13.982  1.00  0.00    -0.000 C 
BRANCH  22  23
ATOM     23  C   UNL     1     -14.621  -3.945  13.111  1.00  0.00    -0.000 C 
BRANCH  23  24
ATOM     24  C   UNL     1     -13.328  -4.629  12.639  1.00  0.00    -0.000 C 
BRANCH  24  25
ATOM     25  C   UNL     1     -13.307  -4.875  11.120  1.00  0.00    -0.000 C 
BRANCH  25  26
ATOM     26  C   UNL     1     -12.008  -4.363  10.462  1.00  0.00    -0.000 C 
BRANCH  26  27
ATOM     27  C   UNL     1     -11.348  -5.381   9.512  1.00  0.00    -0.000 C 
BRANCH  27  28
ATOM     28  C   UNL     1      -9.942  -5.840   9.933  1.00  0.00    -0.000 C 
BRANCH  28  29
ATOM     29  C   UNL     1      -9.603  -5.464  11.383  1.00  0.00    -0.003 C 
ATOM     30  C   UNL     1      -8.267  -6.064  11.807  1.00  0.00     0.004 C 
ENDBRANCH  28  29
ENDBRANCH  27  28
ENDBRANCH  26  27
ENDBRANCH  25  26
ENDBRANCH  24  25
ENDBRANCH  23  24
ENDBRANCH  22  23
ENDBRANCH  21  22
ENDBRANCH  20  21
ENDBRANCH  19  20
ENDBRANCH  18  19
ENDBRANCH  17  18
ENDBRANCH   1  17
TORSDOF 26
ENDMDL
MODEL 5
REMARK VINA RESULT:    -5.801      2.329      5.337
REMARK INTER + INTRA:         -19.640
REMARK INTER:                 -14.389
REMARK INTRA:                  -5.252
REMARK UNBOUND:                -5.022
REMARK SMILES CCCCCCCCCCCCCCCCCCCCCCCCCCCC(=O)[O-]
REMARK SMILES IDX 15 1 16 2 17 3 18 4 19 5 20 6 21 7 22 8 23 9 24 10 25 11
REMARK SMILES IDX 26 12 27 13 28 14 29 15 30 16 14 17 13 18 12 19 11 20 10 21
REMARK SMILES IDX 9 22 8 23 7 24 6 25 5 26 4 27 3 28 2 29 1 30
REMARK H PARENT
REMARK Flexibility Score: inf
ROOT
ATOM      1  C   UNL     1     -13.857  -2.351  14.174  1.00  0.00     0.000 C 
ENDROOT
BRANCH   1   2
ATOM      2  C   UNL     1     -13.161  -1.554  13.057  1.00  0.00     0.000 C 
BRANCH   2   3
ATOM      3  C   UNL     1     -13.028  -2.349  11.749  1.00  0.00     0.000 C 
BRANCH   3   4
ATOM      4  C   UNL     1     -14.403  -2.606  11.122  1.00  0.00     0.000 C 
BRANCH   4   5
ATOM      5  C   UNL     1     -14.543  -4.072  10.686  1.00  0.00     0.000 C 
BRANCH   5   6
ATOM      6  C   UNL     1     -13.252  -4.879  10.902  1.00  0.00     0.000 C 
BRANCH   6   7
ATOM      7  C   UNL     1     -12.765  -5.575   9.618  1.00  0.00     0.000 C 
BRANCH   7   8
ATOM      8  C   UNL     1     -11.235  -5.565   9.486  1.00  0.00     0.000 C 
BRANCH   8   9
ATOM      9  C   UNL     1     -10.531  -5.234  10.814  1.00  0.00     0.000 C 
BRANCH   9  10
ATOM     10  C   UNL     1      -9.146  -5.891  10.924  1.00  0.00     0.000 C 
BRANCH  10  11
ATOM     11  C   UNL     1      -8.965  -6.668  12.240  1.00  0.00     0.000 C 
BRANCH  11  12
ATOM     12  C   UNL     1     -10.289  -6.912  12.985  1.00  0.00     0.006 C 
BRANCH  12  13
ATOM     13  C   UNL     1     -10.284  -6.419  14.443  1.00  0.00     0.053 C 
BRANCH  13  14
ATOM     14  C   UNL     1     -11.108  -7.286  15.346  1.00  0.00     0.041 C 
ATOM     15  O   UNL     1     -11.163  -8.529  15.152  1.00  0.00    -0.550 OA
ATOM     16  O   UNL     1     -11.784  -6.729  16.425  1.00  0.00    -0.550 OA
ENDBRANCH  13  14
ENDBRANCH  12  13
ENDBRANCH  11  12
ENDBRANCH  10  11
ENDBRANCH   9  10
ENDBRANCH   8   9
ENDBRANCH   7   8
ENDBRANCH   6   7
ENDBRANCH   5   6
ENDBRANCH   4   5
ENDBRANCH   3   4
ENDBRANCH   2   3
ENDBRANCH   1   2
BRANCH   1  17
ATOM     17  C   UNL     1     -13.036  -3.522  14.750  1.00  0.00     0.000 C 
BRANCH  17  18
ATOM     18  C   UNL     1     -12.720  -3.421  16.255  1.00  0.00     0.000 C 
BRANCH  18  19
ATOM     19  C   UNL     1     -11.219  -3.400  16.605  1.00  0.00     0.000 C 
BRANCH  19  20
ATOM     20  C   UNL     1     -10.858  -2.604  17.873  1.00  0.00     0.000 C 
BRANCH  20  21
ATOM     21  C   UNL     1      -9.357  -2.656  18.204  1.00  0.00     0.000 C 
BRANCH  21  22
ATOM     22  C   UNL     1      -8.536  -3.344  17.101  1.00  0.00    -0.000 C 
BRANCH  22  23
ATOM     23  C   UNL     1      -7.072  -2.870  17.079  1.00  0.00    -0.000 C 
BRANCH  23  24
ATOM     24  C   UNL     1      -6.342  -3.275  15.788  1.00  0.00    -0.000 C 
BRANCH  24  25
ATOM     25  C   UNL     1      -7.144  -4.279  14.942  1.00  0.00    -0.000 C 
BRANCH  25  26
ATOM     26  C   UNL     1      -6.904  -4.093  13.429  1.00  0.00    -0.000 C 
BRANCH  26  27
ATOM     27  C   UNL     1      -7.881  -3.107  12.761  1.00  0.00    -0.000 C 
BRANCH  27  28
ATOM     28  C   UNL     1      -9.258  -3.002  13.438  1.00  0.00    -0.000 C 
BRANCH  28  29
ATOM     29  C   UNL     1      -9.554  -1.592  13.969  1.00  0.00    -0.003 C 
ATOM     30  C   UNL     1      -8.727  -0.543  13.232  1.00  0.00     0.004 C 
ENDBRANCH  28  29
ENDBRANCH  27  28
ENDBRANCH  26  27
ENDBRANCH  25  26
ENDBRANCH  24  25
ENDBRANCH  23  24
ENDBRANCH  22  23
ENDBRANCH  21  22
ENDBRANCH  20  21
ENDBRANCH  19  20
ENDBRANCH  18  19
ENDBRANCH  17  18
ENDBRANCH   1  17
TORSDOF 26
ENDMDL
MODEL 6
REMARK VINA RESULT:    -5.777      1.162      5.193
REMARK INTER + INTRA:         -19.581
REMARK INTER:                 -14.639
REMARK INTRA:                  -4.942
REMARK UNBOUND:                -5.022
REMARK SMILES CCCCCCCCCCCCCCCCCCCCCCCCCCCC(=O)[O-]
REMARK SMILES IDX 15 1 16 2 17 3 18 4 19 5 20 6 21 7 22 8 23 9 24 10 25 11
REMARK SMILES IDX 26 12 27 13 28 14 29 15 30 16 14 17 13 18 12 19 11 20 10 21
REMARK SMILES IDX 9 22 8 23 7 24 6 25 5 26 4 27 3 28 2 29 1 30
REMARK H PARENT
REMARK Flexibility Score: inf
ROOT
ATOM      1  C   UNL     1     -13.348  -5.651   9.566  1.00  0.00     0.000 C 
ENDROOT
BRANCH   1   2
ATOM      2  C   UNL     1     -11.982  -6.012   8.957  1.00  0.00     0.000 C 
BRANCH   2   3
ATOM      3  C   UNL     1     -10.841  -5.124   9.475  1.00  0.00     0.000 C 
BRANCH   3   4
ATOM      4  C   UNL     1      -9.882  -5.925  10.363  1.00  0.00     0.000 C 
BRANCH   4   5
ATOM      5  C   UNL     1      -9.404  -5.082  11.555  1.00  0.00     0.000 C 
BRANCH   5   6
ATOM      6  C   UNL     1      -8.348  -5.806  12.406  1.00  0.00     0.000 C 
BRANCH   6   7
ATOM      7  C   UNL     1      -7.054  -4.987  12.568  1.00  0.00     0.000 C 
BRANCH   7   8
ATOM      8  C   UNL     1      -6.945  -4.327  13.951  1.00  0.00     0.000 C 
BRANCH   8   9
ATOM      9  C   UNL     1      -7.191  -2.809  13.901  1.00  0.00     0.000 C 
BRANCH   9  10
ATOM     10  C   UNL     1      -8.662  -2.460  13.627  1.00  0.00     0.000 C 
BRANCH  10  11
ATOM     11  C   UNL     1      -8.855  -0.987  13.227  1.00  0.00     0.000 C 
BRANCH  11  12
ATOM     12  C   UNL     1     -10.310  -0.647  12.857  1.00  0.00     0.006 C 
BRANCH  12  13
ATOM     13  C   UNL     1     -11.254  -1.862  12.859  1.00  0.00     0.053 C 
BRANCH  13  14
ATOM     14  C   UNL     1     -12.696  -1.470  12.737  1.00  0.00     0.041 C 
ATOM     15  O   UNL     1     -13.497  -1.707  13.679  1.00  0.00    -0.550 OA
ATOM     16  O   UNL     1     -13.147  -0.808  11.602  1.00  0.00    -0.550 OA
ENDBRANCH  13  14
ENDBRANCH  12  13
ENDBRANCH  11  12
ENDBRANCH  10  11
ENDBRANCH   9  10
ENDBRANCH   8   9
ENDBRANCH   7   8
ENDBRANCH   6   7
ENDBRANCH   5   6
ENDBRANCH   4   5
ENDBRANCH   3   4
ENDBRANCH   2   3
ENDBRANCH   1   2
BRANCH   1  17
ATOM     17  C   UNL     1     -13.336  -4.443  10.525  1.00  0.00     0.000 C 
BRANCH  17  18
ATOM     18  C   UNL     1     -13.740  -4.758  11.979  1.00  0.00     0.000 C 
BRANCH  18  19
ATOM     19  C   UNL     1     -12.606  -5.311  12.864  1.00  0.00     0.000 C 
BRANCH  19  20
ATOM     20  C   UNL     1     -12.579  -6.844  13.004  1.00  0.00     0.000 C 
BRANCH  20  21
ATOM     21  C   UNL     1     -11.332  -7.354  13.748  1.00  0.00     0.000 C 
BRANCH  21  22
ATOM     22  C   UNL     1     -11.384  -7.055  15.255  1.00  0.00    -0.000 C 
BRANCH  22  23
ATOM     23  C   UNL     1     -10.021  -6.608  15.811  1.00  0.00    -0.000 C 
BRANCH  23  24
ATOM     24  C   UNL     1      -9.867  -5.079  15.833  1.00  0.00    -0.000 C 
BRANCH  24  25
ATOM     25  C   UNL     1     -11.208  -4.345  15.656  1.00  0.00    -0.000 C 
BRANCH  25  26
ATOM     26  C   UNL     1     -11.401  -3.219  16.694  1.00  0.00    -0.000 C 
BRANCH  26  27
ATOM     27  C   UNL     1     -10.099  -2.483  17.064  1.00  0.00    -0.000 C 
BRANCH  27  28
ATOM     28  C   UNL     1      -9.670  -2.627  18.534  1.00  0.00    -0.000 C 
BRANCH  28  29
ATOM     29  C   UNL     1      -8.202  -3.052  18.686  1.00  0.00    -0.003 C 
ATOM     30  C   UNL     1      -7.482  -3.033  17.342  1.00  0.00     0.004 C 
ENDBRANCH  28  29
ENDBRANCH  27  28
ENDBRANCH  26  27
ENDBRANCH  25  26
ENDBRANCH  24  25
ENDBRANCH  23  24
ENDBRANCH  22  23
ENDBRANCH  21  22
ENDBRANCH  20  21
ENDBRANCH  19  20
ENDBRANCH  18  19
ENDBRANCH  17  18
ENDBRANCH   1  17
TORSDOF 26
ENDMDL
MODEL 7
REMARK VINA RESULT:    -5.765      1.560      4.782
REMARK INTER + INTRA:         -19.550
REMARK INTER:                 -14.876
REMARK INTRA:                  -4.674
REMARK UNBOUND:                -5.022
REMARK SMILES CCCCCCCCCCCCCCCCCCCCCCCCCCCC(=O)[O-]
REMARK SMILES IDX 15 1 16 2 17 3 18 4 19 5 20 6 21 7 22 8 23 9 24 10 25 11
REMARK SMILES IDX 26 12 27 13 28 14 29 15 30 16 14 17 13 18 12 19 11 20 10 21
REMARK SMILES IDX 9 22 8 23 7 24 6 25 5 26 4 27 3 28 2 29 1 30
REMARK H PARENT
REMARK Flexibility Score: inf
ROOT
ATOM      1  C   UNL     1      -9.801  -5.627  10.755  1.00  0.00     0.000 C 
ENDROOT
BRANCH   1   2
ATOM      2  C   UNL     1      -8.610  -6.245  11.509  1.00  0.00     0.000 C 
BRANCH   2   3
ATOM      3  C   UNL     1      -8.199  -5.433  12.745  1.00  0.00     0.000 C 
BRANCH   3   4
ATOM      4  C   UNL     1      -6.841  -4.754  12.529  1.00  0.00     0.000 C 
BRANCH   4   5
ATOM      5  C   UNL     1      -6.976  -3.225  12.578  1.00  0.00     0.000 C 
BRANCH   5   6
ATOM      6  C   UNL     1      -8.230  -2.767  13.341  1.00  0.00     0.000 C 
BRANCH   6   7
ATOM      7  C   UNL     1      -8.310  -1.236  13.486  1.00  0.00     0.000 C 
BRANCH   7   8
ATOM      8  C   UNL     1      -9.748  -0.707  13.368  1.00  0.00     0.000 C 
BRANCH   8   9
ATOM      9  C   UNL     1     -10.599  -1.529  12.384  1.00  0.00     0.000 C 
BRANCH   9  10
ATOM     10  C   UNL     1     -11.743  -0.708  11.769  1.00  0.00     0.000 C 
BRANCH  10  11
ATOM     11  C   UNL     1     -13.095  -1.439  11.833  1.00  0.00     0.000 C 
BRANCH  11  12
ATOM     12  C   UNL     1     -13.548  -1.748  13.271  1.00  0.00     0.006 C 
BRANCH  12  13
ATOM     13  C   UNL     1     -13.787  -3.244  13.542  1.00  0.00     0.053 C 
BRANCH  13  14
ATOM     14  C   UNL     1     -14.922  -3.800  12.736  1.00  0.00     0.041 C 
ATOM     15  O   UNL     1     -15.916  -4.314  13.314  1.00  0.00    -0.550 OA
ATOM     16  O   UNL     1     -14.904  -3.714  11.349  1.00  0.00    -0.550 OA
ENDBRANCH  13  14
ENDBRANCH  12  13
ENDBRANCH  11  12
ENDBRANCH  10  11
ENDBRANCH   9  10
ENDBRANCH   8   9
ENDBRANCH   7   8
ENDBRANCH   6   7
ENDBRANCH   5   6
ENDBRANCH   4   5
ENDBRANCH   3   4
ENDBRANCH   2   3
ENDBRANCH   1   2
BRANCH   1  17
ATOM     17  C   UNL     1     -10.929  -5.079  11.652  1.00  0.00     0.000 C 
BRANCH  17  18
ATOM     18  C   UNL     1     -12.246  -5.877  11.607  1.00  0.00     0.000 C 
BRANCH  18  19
ATOM     19  C   UNL     1     -12.531  -6.734  12.857  1.00  0.00     0.000 C 
BRANCH  19  20
ATOM     20  C   UNL     1     -11.287  -7.119  13.679  1.00  0.00     0.000 C 
BRANCH  20  21
ATOM     21  C   UNL     1     -11.631  -7.557  15.112  1.00  0.00     0.000 C 
BRANCH  21  22
ATOM     22  C   UNL     1     -11.420  -6.431  16.138  1.00  0.00    -0.000 C 
BRANCH  22  23
ATOM     23  C   UNL     1     -10.368  -5.408  15.676  1.00  0.00    -0.000 C 
BRANCH  23  24
ATOM     24  C   UNL     1     -10.971  -4.019  15.413  1.00  0.00    -0.000 C 
BRANCH  24  25
ATOM     25  C   UNL     1     -11.797  -3.497  16.603  1.00  0.00    -0.000 C 
BRANCH  25  26
ATOM     26  C   UNL     1     -10.937  -2.697  17.605  1.00  0.00    -0.000 C 
BRANCH  26  27
ATOM     27  C   UNL     1      -9.577  -2.248  17.038  1.00  0.00    -0.000 C 
BRANCH  27  28
ATOM     28  C   UNL     1      -8.362  -3.015  17.587  1.00  0.00    -0.000 C 
BRANCH  28  29
ATOM     29  C   UNL     1      -7.344  -3.376  16.496  1.00  0.00    -0.003 C 
ATOM     30  C   UNL     1      -6.066  -2.555  16.644  1.00  0.00     0.004 C 
ENDBRANCH  28  29
ENDBRANCH  27  28
ENDBRANCH  26  27
ENDBRANCH  25  26
ENDBRANCH  24  25
ENDBRANCH  23  24
ENDBRANCH  22  23
ENDBRANCH  21  22
ENDBRANCH  20  21
ENDBRANCH  19  20
ENDBRANCH  18  19
ENDBRANCH  17  18
ENDBRANCH   1  17
TORSDOF 26
ENDMDL
MODEL 8
REMARK VINA RESULT:    -5.660      2.063      5.176
REMARK INTER + INTRA:         -19.286
REMARK INTER:                 -14.287
REMARK INTRA:                  -4.999
REMARK UNBOUND:                -5.022
REMARK SMILES CCCCCCCCCCCCCCCCCCCCCCCCCCCC(=O)[O-]
REMARK SMILES IDX 15 1 16 2 17 3 18 4 19 5 20 6 21 7 22 8 23 9 24 10 25 11
REMARK SMILES IDX 26 12 27 13 28 14 29 15 30 16 14 17 13 18 12 19 11 20 10 21
REMARK SMILES IDX 9 22 8 23 7 24 6 25 5 26 4 27 3 28 2 29 1 30
REMARK H PARENT
REMARK Flexibility Score: inf
ROOT
ATOM      1  C   UNL     1     -12.886  -3.629  16.226  1.00  0.00     0.000 C 
ENDROOT
BRANCH   1   2
ATOM      2  C   UNL     1     -13.281  -3.004  14.877  1.00  0.00     0.000 C 
BRANCH   2   3
ATOM      3  C   UNL     1     -14.722  -3.336  14.463  1.00  0.00     0.000 C 
BRANCH   3   4
ATOM      4  C   UNL     1     -14.742  -4.239  13.224  1.00  0.00     0.000 C 
BRANCH   4   5
ATOM      5  C   UNL     1     -14.874  -3.406  11.939  1.00  0.00     0.000 C 
BRANCH   5   6
ATOM      6  C   UNL     1     -13.861  -3.821  10.860  1.00  0.00     0.000 C 
BRANCH   6   7
ATOM      7  C   UNL     1     -13.175  -5.163  11.174  1.00  0.00     0.000 C 
BRANCH   7   8
ATOM      8  C   UNL     1     -12.322  -5.677  10.005  1.00  0.00     0.000 C 
BRANCH   8   9
ATOM      9  C   UNL     1     -10.972  -4.946   9.895  1.00  0.00     0.000 C 
BRANCH   9  10
ATOM     10  C   UNL     1      -9.779  -5.865  10.205  1.00  0.00     0.000 C 
BRANCH  10  11
ATOM     11  C   UNL     1      -9.211  -5.637  11.617  1.00  0.00     0.000 C 
BRANCH  11  12
ATOM     12  C   UNL     1      -9.715  -6.667  12.644  1.00  0.00     0.006 C 
BRANCH  12  13
ATOM     13  C   UNL     1     -10.092  -6.056  14.005  1.00  0.00     0.053 C 
BRANCH  13  14
ATOM     14  C   UNL     1     -11.315  -6.688  14.599  1.00  0.00     0.041 C 
ATOM     15  O   UNL     1     -11.399  -6.854  15.845  1.00  0.00    -0.550 OA
ATOM     16  O   UNL     1     -12.378  -7.057  13.784  1.00  0.00    -0.550 OA
ENDBRANCH  13  14
ENDBRANCH  12  13
ENDBRANCH  11  12
ENDBRANCH  10  11
ENDBRANCH   9  10
ENDBRANCH   8   9
ENDBRANCH   7   8
ENDBRANCH   6   7
ENDBRANCH   5   6
ENDBRANCH   4   5
ENDBRANCH   3   4
ENDBRANCH   2   3
ENDBRANCH   1   2
BRANCH   1  17
ATOM     17  C   UNL     1     -11.385  -3.547  16.570  1.00  0.00     0.000 C 
BRANCH  17  18
ATOM     18  C   UNL     1     -11.034  -2.616  17.748  1.00  0.00     0.000 C 
BRANCH  18  19
ATOM     19  C   UNL     1      -9.547  -2.615  18.157  1.00  0.00     0.000 C 
BRANCH  19  20
ATOM     20  C   UNL     1      -8.616  -3.412  17.224  1.00  0.00     0.000 C 
BRANCH  20  21
ATOM     21  C   UNL     1      -7.141  -3.000  17.360  1.00  0.00     0.000 C 
BRANCH  21  22
ATOM     22  C   UNL     1      -6.410  -2.975  16.007  1.00  0.00    -0.000 C 
BRANCH  22  23
ATOM     23  C   UNL     1      -6.982  -4.003  15.015  1.00  0.00    -0.000 C 
BRANCH  23  24
ATOM     24  C   UNL     1      -7.208  -3.408  13.616  1.00  0.00    -0.000 C 
BRANCH  24  25
ATOM     25  C   UNL     1      -7.183  -1.869  13.614  1.00  0.00    -0.000 C 
BRANCH  25  26
ATOM     26  C   UNL     1      -8.566  -1.262  13.295  1.00  0.00    -0.000 C 
BRANCH  26  27
ATOM     27  C   UNL     1      -9.746  -2.046  13.902  1.00  0.00    -0.000 C 
BRANCH  27  28
ATOM     28  C   UNL     1     -10.757  -2.589  12.879  1.00  0.00    -0.000 C 
BRANCH  28  29
ATOM     29  C   UNL     1     -11.068  -1.584  11.759  1.00  0.00    -0.003 C 
ATOM     30  C   UNL     1     -12.277  -0.725  12.112  1.00  0.00     0.004 C 
ENDBRANCH  28  29
ENDBRANCH  27  28
ENDBRANCH  26  27
ENDBRANCH  25  26
ENDBRANCH  24  25
ENDBRANCH  23  24
ENDBRANCH  22  23
ENDBRANCH  21  22
ENDBRANCH  20  21
ENDBRANCH  19  20
ENDBRANCH  18  19
ENDBRANCH  17  18
ENDBRANCH   1  17
TORSDOF 26
ENDMDL
MODEL 9
REMARK VINA RESULT:    -5.660      1.143      6.420
REMARK INTER + INTRA:         -19.285
REMARK INTER:                 -14.272
REMARK INTRA:                  -5.013
REMARK UNBOUND:                -5.022
REMARK SMILES CCCCCCCCCCCCCCCCCCCCCCCCCCCC(=O)[O-]
REMARK SMILES IDX 15 1 16 2 17 3 18 4 19 5 20 6 21 7 22 8 23 9 24 10 25 11
REMARK SMILES IDX 26 12 27 13 28 14 29 15 30 16 14 17 13 18 12 19 11 20 10 21
REMARK SMILES IDX 9 22 8 23 7 24 6 25 5 26 4 27 3 28 2 29 1 30
REMARK H PARENT
REMARK Flexibility Score: inf
ROOT
ATOM      1  C   UNL     1     -12.839  -3.568  16.280  1.00  0.00     0.000 C 
ENDROOT
BRANCH   1   2
ATOM      2  C   UNL     1     -11.330  -3.442  16.551  1.00  0.00     0.000 C 
BRANCH   2   3
ATOM      3  C   UNL     1     -11.014  -2.607  17.800  1.00  0.00     0.000 C 
BRANCH   3   4
ATOM      4  C   UNL     1      -9.507  -2.596  18.086  1.00  0.00     0.000 C 
BRANCH   4   5
ATOM      5  C   UNL     1      -8.716  -3.133  16.883  1.00  0.00     0.000 C 
BRANCH   5   6
ATOM      6  C   UNL     1      -7.198  -2.949  17.045  1.00  0.00     0.000 C 
BRANCH   6   7
ATOM      7  C   UNL     1      -6.423  -3.260  15.752  1.00  0.00     0.000 C 
BRANCH   7   8
ATOM      8  C   UNL     1      -7.339  -3.740  14.616  1.00  0.00     0.000 C 
BRANCH   8   9
ATOM      9  C   UNL     1      -7.015  -3.065  13.272  1.00  0.00     0.000 C 
BRANCH   9  10
ATOM     10  C   UNL     1      -8.075  -2.029  12.863  1.00  0.00     0.000 C 
BRANCH  10  11
ATOM     11  C   UNL     1      -9.414  -2.236  13.592  1.00  0.00     0.000 C 
BRANCH  11  12
ATOM     12  C   UNL     1     -10.490  -1.215  13.181  1.00  0.00     0.006 C 
BRANCH  12  13
ATOM     13  C   UNL     1     -11.429  -1.713  12.068  1.00  0.00     0.053 C 
BRANCH  13  14
ATOM     14  C   UNL     1     -12.460  -0.695  11.687  1.00  0.00     0.041 C 
ATOM     15  O   UNL     1     -13.671  -0.882  11.976  1.00  0.00    -0.550 OA
ATOM     16  O   UNL     1     -12.080   0.481  11.050  1.00  0.00    -0.550 OA
ENDBRANCH  13  14
ENDBRANCH  12  13
ENDBRANCH  11  12
ENDBRANCH  10  11
ENDBRANCH   9  10
ENDBRANCH   8   9
ENDBRANCH   7   8
ENDBRANCH   6   7
ENDBRANCH   5   6
ENDBRANCH   4   5
ENDBRANCH   3   4
ENDBRANCH   2   3
ENDBRANCH   1   2
BRANCH   1  17
ATOM     17  C   UNL     1     -13.312  -2.982  14.934  1.00  0.00     0.000 C 
BRANCH  17  18
ATOM     18  C   UNL     1     -14.265  -3.886  14.127  1.00  0.00     0.000 C 
BRANCH  18  19
ATOM     19  C   UNL     1     -13.684  -4.430  12.807  1.00  0.00     0.000 C 
BRANCH  19  20
ATOM     20  C   UNL     1     -14.441  -3.999  11.537  1.00  0.00     0.000 C 
BRANCH  20  21
ATOM     21  C   UNL     1     -13.769  -4.495  10.245  1.00  0.00     0.000 C 
BRANCH  21  22
ATOM     22  C   UNL     1     -12.724  -5.592  10.509  1.00  0.00    -0.000 C 
BRANCH  22  23
ATOM     23  C   UNL     1     -11.681  -5.690   9.382  1.00  0.00    -0.000 C 
BRANCH  23  24
ATOM     24  C   UNL     1     -10.238  -5.648   9.910  1.00  0.00    -0.000 C 
BRANCH  24  25
ATOM     25  C   UNL     1     -10.148  -5.109  11.349  1.00  0.00    -0.000 C 
BRANCH  25  26
ATOM     26  C   UNL     1      -9.405  -6.079  12.292  1.00  0.00    -0.000 C 
BRANCH  26  27
ATOM     27  C   UNL     1     -10.333  -7.066  13.026  1.00  0.00    -0.000 C 
BRANCH  27  28
ATOM     28  C   UNL     1     -11.197  -6.440  14.134  1.00  0.00    -0.000 C 
BRANCH  28  29
ATOM     29  C   UNL     1     -10.851  -6.975  15.532  1.00  0.00    -0.003 C 
ATOM     30  C   UNL     1      -9.539  -6.384  16.037  1.00  0.00     0.004 C 
ENDBRANCH  28  29
ENDBRANCH  27  28
ENDBRANCH  26  27
ENDBRANCH  25  26
ENDBRANCH  24  25
ENDBRANCH  23  24
ENDBRANCH  22  23
ENDBRANCH  21  22
ENDBRANCH  20  21
ENDBRANCH  19  20
ENDBRANCH  18  19
ENDBRANCH  17  18
ENDBRANCH   1  17
TORSDOF 26
ENDMDL
