MODEL 1
REMARK VINA RESULT:    -3.797      0.000      0.000
REMARK INTER + INTRA:          -4.756
REMARK INTER:                  -4.463
REMARK INTRA:                  -0.293
REMARK UNBOUND:                -0.293
REMARK SMILES O=c1cc(-c2ccc(O)c(O)c2)oc2cc(O)cc(O)c12
REMARK SMILES IDX 4 1 3 2 2 3 1 4 21 5 19 6 18 7 16 8 15 9 14 10 13 11 5 12
REMARK SMILES IDX 6 13 7 14 8 15 12 16 10 17 9 18 11 20 20 22 17 24
REMARK H PARENT 9 19 11 21 20 23 17 25
REMARK Flexibility Score: inf
ROOT
ATOM      1  C   UNL     1       8.331 -22.488 -19.764  1.00  0.00     0.138 A 
ATOM      2  C   UNL     1       7.002 -22.908 -19.587  1.00  0.00     0.100 A 
ATOM      3  C   UNL     1       6.390 -22.739 -18.344  1.00  0.00     0.197 A 
ATOM      4  O   UNL     1       5.197 -23.120 -18.193  1.00  0.00    -0.289 OA
ATOM      5  C   UNL     1       7.112 -22.154 -17.286  1.00  0.00     0.107 A 
ATOM      6  C   UNL     1       6.567 -21.945 -15.997  1.00  0.00     0.134 A 
ATOM      7  C   UNL     1       7.355 -21.361 -14.995  1.00  0.00     0.093 A 
ATOM      8  C   UNL     1       8.675 -20.983 -15.255  1.00  0.00     0.123 A 
ATOM      9  C   UNL     1       9.220 -21.186 -16.528  1.00  0.00     0.094 A 
ATOM     10  C   UNL     1       8.449 -21.766 -17.540  1.00  0.00     0.146 A 
ATOM     11  O   UNL     1       8.989 -21.948 -18.741  1.00  0.00    -0.456 OA
ENDROOT
BRANCH   1  12
ATOM     12  C   UNL     1       9.034 -22.644 -21.063  1.00  0.00     0.021 A 
ATOM     13  C   UNL     1      10.438 -22.591 -21.099  1.00  0.00     0.016 A 
ATOM     14  C   UNL     1      11.124 -22.727 -22.309  1.00  0.00     0.051 A 
ATOM     15  C   UNL     1      10.418 -22.908 -23.504  1.00  0.00     0.157 A 
ATOM     16  C   UNL     1       8.329 -22.813 -22.272  1.00  0.00     0.062 A 
ATOM     17  C   UNL     1       9.019 -22.948 -23.486  1.00  0.00     0.158 A 
BRANCH  15  18
ATOM     18  O   UNL     1      11.097 -23.045 -24.712  1.00  0.00    -0.504 OA
ATOM     19  H   UNL     1      11.054 -22.329 -25.429  1.00  0.00     0.293 HD
ENDBRANCH  15  18
BRANCH  17  20
ATOM     20  O   UNL     1       8.318 -23.118 -24.679  1.00  0.00    -0.504 OA
ATOM     21  H   UNL     1       7.509 -23.726 -24.737  1.00  0.00     0.293 HD
ENDBRANCH  17  20
ENDBRANCH   1  12
BRANCH   6  22
ATOM     22  O   UNL     1       5.252 -22.313 -15.706  1.00  0.00    -0.507 OA
ATOM     23  H   UNL     1       5.039 -23.140 -15.159  1.00  0.00     0.293 HD
ENDBRANCH   6  22
BRANCH   8  24
ATOM     24  O   UNL     1       9.436 -20.404 -14.242  1.00  0.00    -0.508 OA
ATOM     25  H   UNL     1       9.761 -19.447 -14.305  1.00  0.00     0.293 HD
ENDBRANCH   8  24
TORSDOF 5
ENDMDL
MODEL 2
REMARK VINA RESULT:    -3.350      1.026      2.605
REMARK INTER + INTRA:          -4.231
REMARK INTER:                  -3.913
REMARK INTRA:                  -0.317
REMARK UNBOUND:                -0.293
REMARK SMILES O=c1cc(-c2ccc(O)c(O)c2)oc2cc(O)cc(O)c12
REMARK SMILES IDX 4 1 3 2 2 3 1 4 21 5 19 6 18 7 16 8 15 9 14 10 13 11 5 12
REMARK SMILES IDX 6 13 7 14 8 15 12 16 10 17 9 18 11 20 20 22 17 24
REMARK H PARENT 9 19 11 21 20 23 17 25
REMARK Flexibility Score: inf
ROOT
ATOM      1  C   UNL     1       9.059 -22.216 -19.574  1.00  0.00     0.138 A 
ATOM      2  C   UNL     1      10.022 -21.822 -18.629  1.00  0.00     0.100 A 
ATOM      3  C   UNL     1       9.634 -21.602 -17.306  1.00  0.00     0.197 A 
ATOM      4  O   UNL     1      10.505 -21.248 -16.465  1.00  0.00    -0.289 OA
ATOM      5  C   UNL     1       8.285 -21.774 -16.938  1.00  0.00     0.107 A 
ATOM      6  C   UNL     1       7.810 -21.574 -15.621  1.00  0.00     0.134 A 
ATOM      7  C   UNL     1       6.449 -21.761 -15.337  1.00  0.00     0.093 A 
ATOM      8  C   UNL     1       5.557 -22.142 -16.342  1.00  0.00     0.123 A 
ATOM      9  C   UNL     1       6.021 -22.343 -17.647  1.00  0.00     0.094 A 
ATOM     10  C   UNL     1       7.374 -22.163 -17.949  1.00  0.00     0.146 A 
ATOM     11  O   UNL     1       7.792 -22.360 -19.196  1.00  0.00    -0.456 OA
ENDROOT
BRANCH   1  12
ATOM     12  C   UNL     1       9.413 -22.463 -20.995  1.00  0.00     0.021 A 
ATOM     13  C   UNL     1      10.765 -22.449 -21.382  1.00  0.00     0.016 A 
ATOM     14  C   UNL     1      11.125 -22.671 -22.714  1.00  0.00     0.051 A 
ATOM     15  C   UNL     1      10.140 -22.902 -23.682  1.00  0.00     0.157 A 
ATOM     16  C   UNL     1       8.427 -22.683 -21.978  1.00  0.00     0.062 A 
ATOM     17  C   UNL     1       8.790 -22.905 -23.314  1.00  0.00     0.158 A 
BRANCH  15  18
ATOM     18  O   UNL     1      10.495 -23.125 -25.011  1.00  0.00    -0.504 OA
ATOM     19  H   UNL     1      10.294 -22.444 -25.734  1.00  0.00     0.293 HD
ENDBRANCH  15  18
BRANCH  17  20
ATOM     20  O   UNL     1       7.812 -23.124 -24.283  1.00  0.00    -0.504 OA
ATOM     21  H   UNL     1       6.938 -22.611 -24.279  1.00  0.00     0.293 HD
ENDBRANCH  17  20
ENDBRANCH   1  12
BRANCH   6  22
ATOM     22  O   UNL     1       8.677 -21.191 -14.596  1.00  0.00    -0.507 OA
ATOM     23  H   UNL     1       9.615 -21.569 -14.523  1.00  0.00     0.293 HD
ENDBRANCH   6  22
BRANCH   8  24
ATOM     24  O   UNL     1       4.211 -22.322 -16.034  1.00  0.00    -0.508 OA
ATOM     25  H   UNL     1       3.563 -21.543 -16.013  1.00  0.00     0.293 HD
ENDBRANCH   8  24
TORSDOF 5
ENDMDL
