MODEL 1
REMARK VINA RESULT:    -0.243      0.000      0.000
REMARK INTER + INTRA:          -0.582
REMARK INTER:                  -0.286
REMARK INTRA:                  -0.296
REMARK UNBOUND:                -0.296
REMARK SMILES O=C([O-])C=Cc1ccc(O)c(O)c1
REMARK SMILES IDX 6 1 13 2 7 3 11 4 8 5 9 6 5 7 4 8 2 9 1 10 3 11 12 12 10 14
REMARK H PARENT 12 13 10 15
REMARK Flexibility Score: inf
ROOT
ATOM      1  C   UNL     1      23.602  26.134  46.922  1.00  0.00    -0.022 A 
ATOM      2  C   UNL     1      24.946  26.543  46.894  1.00  0.00     0.058 A 
ATOM      3  C   UNL     1      22.589  27.101  46.887  1.00  0.00     0.012 A 
ATOM      4  C   UNL     1      25.274  27.907  46.886  1.00  0.00     0.157 A 
ATOM      5  C   UNL     1      22.913  28.461  46.881  1.00  0.00     0.051 A 
ATOM      6  C   UNL     1      24.250  28.870  46.885  1.00  0.00     0.157 A 
ENDROOT
BRANCH   1   7
ATOM      7  C   UNL     1      23.237  24.703  46.876  1.00  0.00     0.010 C 
ATOM      8  C   UNL     1      23.134  23.893  47.941  1.00  0.00     0.025 C 
BRANCH   8   9
ATOM      9  C   UNL     1      23.182  24.324  49.351  1.00  0.00     0.064 C 
ATOM     10  O   UNL     1      22.119  24.686  49.920  1.00  0.00    -0.545 OA
ATOM     11  O   UNL     1      24.383  24.412  50.044  1.00  0.00    -0.545 OA
ENDBRANCH   8   9
ENDBRANCH   1   7
BRANCH   4  12
ATOM     12  O   UNL     1      26.609  28.307  46.876  1.00  0.00    -0.504 OA
ATOM     13  H   UNL     1      27.310  27.798  46.350  1.00  0.00     0.293 HD
ENDBRANCH   4  12
BRANCH   6  14
ATOM     14  O   UNL     1      24.542  30.234  46.881  1.00  0.00    -0.504 OA
ATOM     15  H   UNL     1      24.313  30.831  46.095  1.00  0.00     0.293 HD
ENDBRANCH   6  14
TORSDOF 4
ENDMDL
MODEL 2
REMARK VINA RESULT:    -0.213      2.456      4.963
REMARK INTER + INTRA:          -0.547
REMARK INTER:                  -0.250
REMARK INTRA:                  -0.296
REMARK UNBOUND:                -0.296
REMARK SMILES O=C([O-])C=Cc1ccc(O)c(O)c1
REMARK SMILES IDX 6 1 13 2 7 3 11 4 8 5 9 6 5 7 4 8 2 9 1 10 3 11 12 12 10 14
REMARK H PARENT 12 13 10 15
REMARK Flexibility Score: inf
ROOT
ATOM      1  C   UNL     1      23.455  29.257  46.922  1.00  0.00    -0.022 A 
ATOM      2  C   UNL     1      22.547  28.185  46.897  1.00  0.00     0.058 A 
ATOM      3  C   UNL     1      24.831  28.993  46.883  1.00  0.00     0.012 A 
ATOM      4  C   UNL     1      23.010  26.861  46.888  1.00  0.00     0.157 A 
ATOM      5  C   UNL     1      25.295  27.674  46.875  1.00  0.00     0.051 A 
ATOM      6  C   UNL     1      24.393  26.606  46.882  1.00  0.00     0.157 A 
ENDROOT
BRANCH   1   7
ATOM      7  C   UNL     1      22.987  30.658  46.878  1.00  0.00     0.010 C 
ATOM      8  C   UNL     1      22.650  31.398  47.945  1.00  0.00     0.025 C 
BRANCH   8   9
ATOM      9  C   UNL     1      22.864  31.015  49.354  1.00  0.00     0.064 C 
ATOM     10  O   UNL     1      23.963  31.287  49.905  1.00  0.00    -0.545 OA
ATOM     11  O   UNL     1      21.911  30.296  50.064  1.00  0.00    -0.545 OA
ENDBRANCH   8   9
ENDBRANCH   1   7
BRANCH   4  12
ATOM     12  O   UNL     1      22.104  25.801  46.881  1.00  0.00    -0.504 OA
ATOM     13  H   UNL     1      21.107  25.957  46.963  1.00  0.00     0.293 HD
ENDBRANCH   4  12
BRANCH   6  14
ATOM     14  O   UNL     1      24.886  25.301  46.877  1.00  0.00    -0.504 OA
ATOM     15  H   UNL     1      25.183  24.835  47.726  1.00  0.00     0.293 HD
ENDBRANCH   6  14
TORSDOF 4
ENDMDL
MODEL 3
REMARK VINA RESULT:    -0.212      1.923      2.732
REMARK INTER + INTRA:          -0.546
REMARK INTER:                  -0.250
REMARK INTRA:                  -0.296
REMARK UNBOUND:                -0.296
REMARK SMILES O=C([O-])C=Cc1ccc(O)c(O)c1
REMARK SMILES IDX 6 1 13 2 7 3 11 4 8 5 9 6 5 7 4 8 2 9 1 10 3 11 12 12 10 14
REMARK H PARENT 12 13 10 15
REMARK Flexibility Score: inf
ROOT
ATOM      1  C   UNL     1      23.249  26.052  46.960  1.00  0.00    -0.022 A 
ATOM      2  C   UNL     1      24.113  24.944  46.951  1.00  0.00     0.058 A 
ATOM      3  C   UNL     1      23.789  27.344  46.902  1.00  0.00     0.012 A 
ATOM      4  C   UNL     1      25.503  25.126  46.940  1.00  0.00     0.157 A 
ATOM      5  C   UNL     1      25.175  27.529  46.892  1.00  0.00     0.051 A 
ATOM      6  C   UNL     1      26.036  26.427  46.915  1.00  0.00     0.157 A 
ENDROOT
BRANCH   1   7
ATOM      7  C   UNL     1      21.782  25.880  46.918  1.00  0.00     0.010 C 
ATOM      8  C   UNL     1      20.987  25.725  47.988  1.00  0.00     0.025 C 
BRANCH   8   9
ATOM      9  C   UNL     1      21.404  25.887  49.393  1.00  0.00     0.064 C 
ATOM     10  O   UNL     1      21.415  27.037  49.903  1.00  0.00    -0.545 OA
ATOM     11  O   UNL     1      21.857  24.809  50.146  1.00  0.00    -0.545 OA
ENDBRANCH   8   9
ENDBRANCH   1   7
BRANCH   4  12
ATOM     12  O   UNL     1      26.355  24.022  46.949  1.00  0.00    -0.504 OA
ATOM     13  H   UNL     1      26.933  23.806  47.753  1.00  0.00     0.293 HD
ENDBRANCH   4  12
BRANCH   6  14
ATOM     14  O   UNL     1      27.414  26.642  46.907  1.00  0.00    -0.504 OA
ATOM     15  H   UNL     1      28.074  25.911  47.142  1.00  0.00     0.293 HD
ENDBRANCH   6  14
TORSDOF 4
ENDMDL
MODEL 4
REMARK VINA RESULT:    -0.212      2.621      3.758
REMARK INTER + INTRA:          -0.546
REMARK INTER:                  -0.258
REMARK INTRA:                  -0.287
REMARK UNBOUND:                -0.296
REMARK SMILES O=C([O-])C=Cc1ccc(O)c(O)c1
REMARK SMILES IDX 6 1 13 2 7 3 11 4 8 5 9 6 5 7 4 8 2 9 1 10 3 11 12 12 10 14
REMARK H PARENT 12 13 10 15
REMARK Flexibility Score: inf
ROOT
ATOM      1  C   UNL     1      23.247  24.908  46.887  1.00  0.00    -0.022 A 
ATOM      2  C   UNL     1      22.029  24.208  46.945  1.00  0.00     0.058 A 
ATOM      3  C   UNL     1      23.234  26.309  46.888  1.00  0.00     0.012 A 
ATOM      4  C   UNL     1      20.810  24.902  46.948  1.00  0.00     0.157 A 
ATOM      5  C   UNL     1      22.020  27.003  46.890  1.00  0.00     0.051 A 
ATOM      6  C   UNL     1      20.808  26.307  46.916  1.00  0.00     0.157 A 
ENDROOT
BRANCH   1   7
ATOM      7  C   UNL     1      24.541  24.197  46.937  1.00  0.00     0.010 C 
ATOM      8  C   UNL     1      25.239  23.932  48.052  1.00  0.00     0.025 C 
BRANCH   8   9
ATOM      9  C   UNL     1      24.755  24.130  49.431  1.00  0.00     0.064 C 
ATOM     10  O   UNL     1      24.093  23.216  49.989  1.00  0.00    -0.545 OA
ATOM     11  O   UNL     1      24.948  25.331  50.103  1.00  0.00    -0.545 OA
ENDBRANCH   8   9
ENDBRANCH   1   7
BRANCH   4  12
ATOM     12  O   UNL     1      19.605  24.201  46.988  1.00  0.00    -0.504 OA
ATOM     13  H   UNL     1      18.722  24.656  46.791  1.00  0.00     0.293 HD
ENDBRANCH   4  12
BRANCH   6  14
ATOM     14  O   UNL     1      19.612  27.026  46.915  1.00  0.00    -0.504 OA
ATOM     15  H   UNL     1      19.573  28.006  47.172  1.00  0.00     0.293 HD
ENDBRANCH   6  14
TORSDOF 4
ENDMDL
MODEL 5
REMARK VINA RESULT:    -0.204      2.294      4.347
REMARK INTER + INTRA:          -0.536
REMARK INTER:                  -0.256
REMARK INTRA:                  -0.280
REMARK UNBOUND:                -0.296
REMARK SMILES O=C([O-])C=Cc1ccc(O)c(O)c1
REMARK SMILES IDX 6 1 13 2 7 3 11 4 8 5 9 6 5 7 4 8 2 9 1 10 3 11 12 12 10 14
REMARK H PARENT 12 13 10 15
REMARK Flexibility Score: inf
ROOT
ATOM      1  C   UNL     1      25.338  28.349  46.875  1.00  0.00    -0.022 A 
ATOM      2  C   UNL     1      25.255  26.947  46.907  1.00  0.00     0.058 A 
ATOM      3  C   UNL     1      24.159  29.107  46.893  1.00  0.00     0.012 A 
ATOM      4  C   UNL     1      24.006  26.308  46.901  1.00  0.00     0.157 A 
ATOM      5  C   UNL     1      22.913  28.473  46.886  1.00  0.00     0.051 A 
ATOM      6  C   UNL     1      22.830  27.077  46.886  1.00  0.00     0.157 A 
ENDROOT
BRANCH   1   7
ATOM      7  C   UNL     1      26.642  29.040  46.935  1.00  0.00     0.010 C 
ATOM      8  C   UNL     1      27.245  29.466  48.056  1.00  0.00     0.025 C 
BRANCH   8   9
ATOM      9  C   UNL     1      26.810  29.156  49.431  1.00  0.00     0.064 C 
ATOM     10  O   UNL     1      26.140  30.008  50.070  1.00  0.00    -0.545 OA
ATOM     11  O   UNL     1      27.185  27.977  50.063  1.00  0.00    -0.545 OA
ENDBRANCH   8   9
ENDBRANCH   1   7
BRANCH   4  12
ATOM     12  O   UNL     1      23.931  24.916  46.915  1.00  0.00    -0.504 OA
ATOM     13  H   UNL     1      24.215  24.378  47.726  1.00  0.00     0.293 HD
ENDBRANCH   4  12
BRANCH   6  14
ATOM     14  O   UNL     1      21.573  26.473  46.876  1.00  0.00    -0.504 OA
ATOM     15  H   UNL     1      20.829  26.767  47.498  1.00  0.00     0.293 HD
ENDBRANCH   6  14
TORSDOF 4
ENDMDL
MODEL 6
REMARK VINA RESULT:    -0.184      2.699      4.789
REMARK INTER + INTRA:          -0.512
REMARK INTER:                  -0.224
REMARK INTRA:                  -0.289
REMARK UNBOUND:                -0.296
REMARK SMILES O=C([O-])C=Cc1ccc(O)c(O)c1
REMARK SMILES IDX 6 1 13 2 7 3 11 4 8 5 9 6 5 7 4 8 2 9 1 10 3 11 12 12 10 14
REMARK H PARENT 12 13 10 15
REMARK Flexibility Score: inf
ROOT
ATOM      1  C   UNL     1      23.200  24.463  47.003  1.00  0.00    -0.022 A 
ATOM      2  C   UNL     1      22.086  25.313  46.903  1.00  0.00     0.058 A 
ATOM      3  C   UNL     1      23.001  23.081  47.119  1.00  0.00     0.012 A 
ATOM      4  C   UNL     1      20.786  24.793  46.974  1.00  0.00     0.157 A 
ATOM      5  C   UNL     1      21.706  22.559  47.190  1.00  0.00     0.051 A 
ATOM      6  C   UNL     1      20.597  23.407  47.123  1.00  0.00     0.157 A 
ENDROOT
BRANCH   1   7
ATOM      7  C   UNL     1      24.576  24.986  46.878  1.00  0.00     0.010 C 
ATOM      8  C   UNL     1      25.316  25.476  47.885  1.00  0.00     0.025 C 
BRANCH   8   9
ATOM      9  C   UNL     1      24.964  25.408  49.315  1.00  0.00     0.064 C 
ATOM     10  O   UNL     1      24.466  26.419  49.876  1.00  0.00    -0.545 OA
ATOM     11  O   UNL     1      25.238  24.279  50.078  1.00  0.00    -0.545 OA
ENDBRANCH   8   9
ENDBRANCH   1   7
BRANCH   4  12
ATOM     12  O   UNL     1      19.684  25.643  46.891  1.00  0.00    -0.504 OA
ATOM     13  H   UNL     1      18.764  25.348  47.194  1.00  0.00     0.293 HD
ENDBRANCH   4  12
BRANCH   6  14
ATOM     14  O   UNL     1      19.317  22.858  47.199  1.00  0.00    -0.504 OA
ATOM     15  H   UNL     1      18.580  23.118  46.554  1.00  0.00     0.293 HD
ENDBRANCH   6  14
TORSDOF 4
ENDMDL
MODEL 7
REMARK VINA RESULT:    -0.166      2.377      3.030
REMARK INTER + INTRA:          -0.492
REMARK INTER:                  -0.195
REMARK INTRA:                  -0.296
REMARK UNBOUND:                -0.296
REMARK SMILES O=C([O-])C=Cc1ccc(O)c(O)c1
REMARK SMILES IDX 6 1 13 2 7 3 11 4 8 5 9 6 5 7 4 8 2 9 1 10 3 11 12 12 10 14
REMARK H PARENT 12 13 10 15
REMARK Flexibility Score: inf
ROOT
ATOM      1  C   UNL     1      25.412  23.799  47.409  1.00  0.00    -0.022 A 
ATOM      2  C   UNL     1      26.112  25.009  47.553  1.00  0.00     0.058 A 
ATOM      3  C   UNL     1      24.060  23.829  47.042  1.00  0.00     0.012 A 
ATOM      4  C   UNL     1      25.454  26.236  47.385  1.00  0.00     0.157 A 
ATOM      5  C   UNL     1      23.400  25.050  46.876  1.00  0.00     0.051 A 
ATOM      6  C   UNL     1      24.089  26.255  47.049  1.00  0.00     0.157 A 
ENDROOT
BRANCH   1   7
ATOM      7  C   UNL     1      26.100  22.497  47.529  1.00  0.00     0.010 C 
ATOM      8  C   UNL     1      26.302  21.829  48.675  1.00  0.00     0.025 C 
BRANCH   8   9
ATOM      9  C   UNL     1      25.715  22.176  49.983  1.00  0.00     0.064 C 
ATOM     10  O   UNL     1      24.580  21.726  50.287  1.00  0.00    -0.545 OA
ATOM     11  O   UNL     1      26.352  23.049  50.857  1.00  0.00    -0.545 OA
ENDBRANCH   8   9
ENDBRANCH   1   7
BRANCH   4  12
ATOM     12  O   UNL     1      26.151  27.433  47.546  1.00  0.00    -0.504 OA
ATOM     13  H   UNL     1      26.957  27.499  48.156  1.00  0.00     0.293 HD
ENDBRANCH   4  12
BRANCH   6  14
ATOM     14  O   UNL     1      23.404  27.458  46.879  1.00  0.00    -0.504 OA
ATOM     15  H   UNL     1      23.171  27.819  45.961  1.00  0.00     0.293 HD
ENDBRANCH   6  14
TORSDOF 4
ENDMDL
MODEL 8
REMARK VINA RESULT:    -0.144      2.665      4.889
REMARK INTER + INTRA:          -0.466
REMARK INTER:                  -0.178
REMARK INTRA:                  -0.287
REMARK UNBOUND:                -0.296
REMARK SMILES O=C([O-])C=Cc1ccc(O)c(O)c1
REMARK SMILES IDX 6 1 13 2 7 3 11 4 8 5 9 6 5 7 4 8 2 9 1 10 3 11 12 12 10 14
REMARK H PARENT 12 13 10 15
REMARK Flexibility Score: inf
ROOT
ATOM      1  C   UNL     1      26.099  28.349  47.332  1.00  0.00    -0.022 A 
ATOM      2  C   UNL     1      24.737  28.676  47.436  1.00  0.00     0.058 A 
ATOM      3  C   UNL     1      26.467  27.029  47.037  1.00  0.00     0.012 A 
ATOM      4  C   UNL     1      23.755  27.684  47.303  1.00  0.00     0.157 A 
ATOM      5  C   UNL     1      25.490  26.037  46.905  1.00  0.00     0.051 A 
ATOM      6  C   UNL     1      24.136  26.357  47.040  1.00  0.00     0.157 A 
ENDROOT
BRANCH   1   7
ATOM      7  C   UNL     1      27.146  29.388  47.416  1.00  0.00     0.010 C 
ATOM      8  C   UNL     1      27.693  29.849  48.552  1.00  0.00     0.025 C 
BRANCH   8   9
ATOM      9  C   UNL     1      27.488  29.273  49.894  1.00  0.00     0.064 C 
ATOM     10  O   UNL     1      26.674  29.822  50.681  1.00  0.00    -0.545 OA
ATOM     11  O   UNL     1      28.227  28.183  50.338  1.00  0.00    -0.545 OA
ENDBRANCH   8   9
ENDBRANCH   1   7
BRANCH   4  12
ATOM     12  O   UNL     1      22.405  28.013  47.425  1.00  0.00    -0.504 OA
ATOM     13  H   UNL     1      21.723  27.337  47.747  1.00  0.00     0.293 HD
ENDBRANCH   4  12
BRANCH   6  14
ATOM     14  O   UNL     1      23.184  25.346  46.905  1.00  0.00    -0.504 OA
ATOM     15  H   UNL     1      23.381  24.384  47.154  1.00  0.00     0.293 HD
ENDBRANCH   6  14
TORSDOF 4
ENDMDL
MODEL 9
REMARK VINA RESULT:    -0.143      2.205      3.213
REMARK INTER + INTRA:          -0.464
REMARK INTER:                  -0.179
REMARK INTRA:                  -0.285
REMARK UNBOUND:                -0.296
REMARK SMILES O=C([O-])C=Cc1ccc(O)c(O)c1
REMARK SMILES IDX 6 1 13 2 7 3 11 4 8 5 9 6 5 7 4 8 2 9 1 10 3 11 12 12 10 14
REMARK H PARENT 12 13 10 15
REMARK Flexibility Score: inf
ROOT
ATOM      1  C   UNL     1      24.718  24.870  47.583  1.00  0.00    -0.022 A 
ATOM      2  C   UNL     1      25.395  25.908  46.921  1.00  0.00     0.058 A 
ATOM      3  C   UNL     1      25.070  24.554  48.902  1.00  0.00     0.012 A 
ATOM      4  C   UNL     1      26.449  26.586  47.550  1.00  0.00     0.157 A 
ATOM      5  C   UNL     1      26.122  25.226  49.532  1.00  0.00     0.051 A 
ATOM      6  C   UNL     1      26.816  26.238  48.862  1.00  0.00     0.157 A 
ENDROOT
BRANCH   1   7
ATOM      7  C   UNL     1      23.571  24.182  46.957  1.00  0.00     0.010 C 
ATOM      8  C   UNL     1      22.288  24.564  47.054  1.00  0.00     0.025 C 
BRANCH   8   9
ATOM      9  C   UNL     1      21.816  25.833  47.640  1.00  0.00     0.064 C 
ATOM     10  O   UNL     1      21.741  26.856  46.912  1.00  0.00    -0.545 OA
ATOM     11  O   UNL     1      21.523  25.944  48.994  1.00  0.00    -0.545 OA
ENDBRANCH   8   9
ENDBRANCH   1   7
BRANCH   4  12
ATOM     12  O   UNL     1      27.128  27.603  46.881  1.00  0.00    -0.504 OA
ATOM     13  H   UNL     1      27.633  27.426  46.021  1.00  0.00     0.293 HD
ENDBRANCH   4  12
BRANCH   6  14
ATOM     14  O   UNL     1      27.862  26.890  49.515  1.00  0.00    -0.504 OA
ATOM     15  H   UNL     1      28.075  26.722  50.491  1.00  0.00     0.293 HD
ENDBRANCH   6  14
TORSDOF 4
ENDMDL
