MODEL 1
REMARK VINA RESULT:    -5.569      0.000      0.000
REMARK INTER + INTRA:         -14.794
REMARK INTER:                 -12.080
REMARK INTRA:                  -2.715
REMARK UNBOUND:                -2.715
REMARK SMILES CCCCCCCCCCCCCCCCCCCCCC(=O)[O-]
REMARK SMILES IDX 12 1 11 2 10 3 9 4 8 5 7 6 6 7 5 8 4 9 3 10 2 11 1 12 13 13
REMARK SMILES IDX 14 14 15 15 16 16 17 17 18 18 19 19 20 20 21 21 22 22 23 23
REMARK SMILES IDX 24 24
REMARK H PARENT
REMARK Flexibility Score: inf
ROOT
ATOM      1  C   UNL     1     -11.014  -8.132   8.476  1.00  0.00     0.000 C 
ENDROOT
BRANCH   1   2
ATOM      2  C   UNL     1      -9.729  -8.292   7.641  1.00  0.00     0.000 C 
BRANCH   2   3
ATOM      3  C   UNL     1      -8.674  -9.178   8.325  1.00  0.00     0.000 C 
BRANCH   3   4
ATOM      4  C   UNL     1      -8.311 -10.424   7.496  1.00  0.00    -0.000 C 
BRANCH   4   5
ATOM      5  C   UNL     1      -9.458 -11.430   7.285  1.00  0.00    -0.000 C 
BRANCH   5   6
ATOM      6  C   UNL     1     -10.126 -11.942   8.576  1.00  0.00    -0.000 C 
BRANCH   6   7
ATOM      7  C   UNL     1     -11.666 -11.876   8.580  1.00  0.00    -0.000 C 
BRANCH   7   8
ATOM      8  C   UNL     1     -12.359 -12.815   9.587  1.00  0.00    -0.000 C 
BRANCH   8   9
ATOM      9  C   UNL     1     -13.242 -13.907   8.956  1.00  0.00    -0.000 C 
BRANCH   9  10
ATOM     10  C   UNL     1     -12.427 -14.970   8.200  1.00  0.00    -0.000 C 
BRANCH  10  11
ATOM     11  C   UNL     1     -11.150 -15.375   8.953  1.00  0.00    -0.003 C 
ATOM     12  C   UNL     1     -11.041 -16.886   9.159  1.00  0.00     0.004 C 
ENDBRANCH  10  11
ENDBRANCH   9  10
ENDBRANCH   8   9
ENDBRANCH   7   8
ENDBRANCH   6   7
ENDBRANCH   5   6
ENDBRANCH   4   5
ENDBRANCH   3   4
ENDBRANCH   2   3
ENDBRANCH   1   2
BRANCH   1  13
ATOM     13  C   UNL     1     -10.820  -8.225  10.001  1.00  0.00     0.000 C 
BRANCH  13  14
ATOM     14  C   UNL     1     -11.997  -8.914  10.714  1.00  0.00     0.000 C 
BRANCH  14  15
ATOM     15  C   UNL     1     -13.309  -8.806   9.919  1.00  0.00     0.000 C 
BRANCH  15  16
ATOM     16  C   UNL     1     -14.392  -9.764  10.441  1.00  0.00     0.000 C 
BRANCH  16  17
ATOM     17  C   UNL     1     -15.769  -9.092  10.569  1.00  0.00     0.000 C 
BRANCH  17  18
ATOM     18  C   UNL     1     -15.846  -7.709   9.884  1.00  0.00     0.000 C 
BRANCH  18  19
ATOM     19  C   UNL     1     -16.105  -6.553  10.867  1.00  0.00     0.000 C 
BRANCH  19  20
ATOM     20  C   UNL     1     -15.611  -5.201  10.322  1.00  0.00     0.006 C 
BRANCH  20  21
ATOM     21  C   UNL     1     -14.128  -5.242   9.931  1.00  0.00     0.053 C 
BRANCH  21  22
ATOM     22  C   UNL     1     -13.931  -4.967   8.472  1.00  0.00     0.041 C 
ATOM     23  O   UNL     1     -13.906  -5.915   7.643  1.00  0.00    -0.550 OA
ATOM     24  O   UNL     1     -13.805  -3.658   8.024  1.00  0.00    -0.550 OA
ENDBRANCH  21  22
ENDBRANCH  20  21
ENDBRANCH  19  20
ENDBRANCH  18  19
ENDBRANCH  17  18
ENDBRANCH  16  17
ENDBRANCH  15  16
ENDBRANCH  14  15
ENDBRANCH  13  14
ENDBRANCH   1  13
TORSDOF 20
ENDMDL
MODEL 2
REMARK VINA RESULT:    -5.383      2.682      5.164
REMARK INTER + INTRA:         -14.391
REMARK INTER:                 -11.884
REMARK INTRA:                  -2.508
REMARK UNBOUND:                -2.715
REMARK SMILES CCCCCCCCCCCCCCCCCCCCCC(=O)[O-]
REMARK SMILES IDX 12 1 11 2 10 3 9 4 8 5 7 6 6 7 5 8 4 9 3 10 2 11 1 12 13 13
REMARK SMILES IDX 14 14 15 15 16 16 17 17 18 18 19 19 20 20 21 21 22 22 23 23
REMARK SMILES IDX 24 24
REMARK H PARENT
REMARK Flexibility Score: inf
ROOT
ATOM      1  C   UNL     1     -15.767  -8.931  10.293  1.00  0.00     0.000 C 
ENDROOT
BRANCH   1   2
ATOM      2  C   UNL     1     -14.332  -9.484  10.378  1.00  0.00     0.000 C 
BRANCH   2   3
ATOM      3  C   UNL     1     -14.201 -10.675  11.343  1.00  0.00     0.000 C 
BRANCH   3   4
ATOM      4  C   UNL     1     -12.869 -10.678  12.114  1.00  0.00    -0.000 C 
BRANCH   4   5
ATOM      5  C   UNL     1     -11.603 -10.737  11.238  1.00  0.00    -0.000 C 
BRANCH   5   6
ATOM      6  C   UNL     1     -11.269 -12.128  10.664  1.00  0.00    -0.000 C 
BRANCH   6   7
ATOM      7  C   UNL     1     -11.757 -12.369   9.222  1.00  0.00    -0.000 C 
BRANCH   7   8
ATOM      8  C   UNL     1     -12.749 -13.536   9.052  1.00  0.00    -0.000 C 
BRANCH   8   9
ATOM      9  C   UNL     1     -12.224 -14.721   8.224  1.00  0.00    -0.000 C 
BRANCH   9  10
ATOM     10  C   UNL     1     -10.748 -15.042   8.512  1.00  0.00    -0.000 C 
BRANCH  10  11
ATOM     11  C   UNL     1     -10.582 -16.127   9.587  1.00  0.00    -0.003 C 
ATOM     12  C   UNL     1     -11.310 -17.424   9.235  1.00  0.00     0.004 C 
ENDBRANCH  10  11
ENDBRANCH   9  10
ENDBRANCH   8   9
ENDBRANCH   7   8
ENDBRANCH   6   7
ENDBRANCH   5   6
ENDBRANCH   4   5
ENDBRANCH   3   4
ENDBRANCH   2   3
ENDBRANCH   1   2
BRANCH   1  13
ATOM     13  C   UNL     1     -16.032  -7.976   9.114  1.00  0.00     0.000 C 
BRANCH  13  14
ATOM     14  C   UNL     1     -15.519  -6.549   9.372  1.00  0.00     0.000 C 
BRANCH  14  15
ATOM     15  C   UNL     1     -14.653  -6.019   8.218  1.00  0.00     0.000 C 
BRANCH  15  16
ATOM     16  C   UNL     1     -13.244  -6.635   8.209  1.00  0.00     0.000 C 
BRANCH  16  17
ATOM     17  C   UNL     1     -12.484  -6.401   9.525  1.00  0.00     0.000 C 
BRANCH  17  18
ATOM     18  C   UNL     1     -11.351  -7.422   9.771  1.00  0.00     0.000 C 
BRANCH  18  19
ATOM     19  C   UNL     1     -11.020  -8.279   8.537  1.00  0.00     0.000 C 
BRANCH  19  20
ATOM     20  C   UNL     1      -9.789  -9.176   8.761  1.00  0.00     0.006 C 
BRANCH  20  21
ATOM     21  C   UNL     1      -8.666  -8.878   7.759  1.00  0.00     0.053 C 
BRANCH  21  22
ATOM     22  C   UNL     1      -7.951 -10.126   7.340  1.00  0.00     0.041 C 
ATOM     23  O   UNL     1      -8.548 -11.235   7.350  1.00  0.00    -0.550 OA
ATOM     24  O   UNL     1      -6.632 -10.058   6.910  1.00  0.00    -0.550 OA
ENDBRANCH  21  22
ENDBRANCH  20  21
ENDBRANCH  19  20
ENDBRANCH  18  19
ENDBRANCH  17  18
ENDBRANCH  16  17
ENDBRANCH  15  16
ENDBRANCH  14  15
ENDBRANCH  13  14
ENDBRANCH   1  13
TORSDOF 20
ENDMDL
MODEL 3
REMARK VINA RESULT:    -5.370      3.373      7.046
REMARK INTER + INTRA:         -14.363
REMARK INTER:                 -11.790
REMARK INTRA:                  -2.573
REMARK UNBOUND:                -2.715
REMARK SMILES CCCCCCCCCCCCCCCCCCCCCC(=O)[O-]
REMARK SMILES IDX 12 1 11 2 10 3 9 4 8 5 7 6 6 7 5 8 4 9 3 10 2 11 1 12 13 13
REMARK SMILES IDX 14 14 15 15 16 16 17 17 18 18 19 19 20 20 21 21 22 22 23 23
REMARK SMILES IDX 24 24
REMARK H PARENT
REMARK Flexibility Score: inf
ROOT
ATOM      1  C   UNL     1     -16.104  -8.021   9.830  1.00  0.00     0.000 C 
ENDROOT
BRANCH   1   2
ATOM      2  C   UNL     1     -15.683  -6.654  10.402  1.00  0.00     0.000 C 
BRANCH   2   3
ATOM      3  C   UNL     1     -14.825  -5.831   9.425  1.00  0.00     0.000 C 
BRANCH   3   4
ATOM      4  C   UNL     1     -13.355  -5.719   9.867  1.00  0.00    -0.000 C 
BRANCH   4   5
ATOM      5  C   UNL     1     -12.494  -6.970   9.609  1.00  0.00    -0.000 C 
BRANCH   5   6
ATOM      6  C   UNL     1     -12.716  -7.646   8.242  1.00  0.00    -0.000 C 
BRANCH   6   7
ATOM      7  C   UNL     1     -11.676  -8.722   7.873  1.00  0.00    -0.000 C 
BRANCH   7   8
ATOM      8  C   UNL     1     -10.228  -8.212   7.728  1.00  0.00    -0.000 C 
BRANCH   8   9
ATOM      9  C   UNL     1      -9.160  -9.084   8.412  1.00  0.00    -0.000 C 
BRANCH   9  10
ATOM     10  C   UNL     1      -8.056  -9.542   7.445  1.00  0.00    -0.000 C 
BRANCH  10  11
ATOM     11  C   UNL     1      -8.017 -11.070   7.280  1.00  0.00    -0.003 C 
ATOM     12  C   UNL     1      -9.411 -11.697   7.264  1.00  0.00     0.004 C 
ENDBRANCH  10  11
ENDBRANCH   9  10
ENDBRANCH   8   9
ENDBRANCH   7   8
ENDBRANCH   6   7
ENDBRANCH   5   6
ENDBRANCH   4   5
ENDBRANCH   3   4
ENDBRANCH   2   3
ENDBRANCH   1   2
BRANCH   1  13
ATOM     13  C   UNL     1     -15.737  -9.237  10.701  1.00  0.00     0.000 C 
BRANCH  13  14
ATOM     14  C   UNL     1     -14.360  -9.830  10.352  1.00  0.00     0.000 C 
BRANCH  14  15
ATOM     15  C   UNL     1     -13.721 -10.567  11.540  1.00  0.00     0.000 C 
BRANCH  15  16
ATOM     16  C   UNL     1     -12.233 -10.220  11.715  1.00  0.00     0.000 C 
BRANCH  16  17
ATOM     17  C   UNL     1     -11.327 -10.964  10.720  1.00  0.00     0.000 C 
BRANCH  17  18
ATOM     18  C   UNL     1     -11.755 -12.428  10.472  1.00  0.00     0.000 C 
BRANCH  18  19
ATOM     19  C   UNL     1     -12.353 -12.662   9.074  1.00  0.00     0.000 C 
BRANCH  19  20
ATOM     20  C   UNL     1     -13.150 -13.977   8.992  1.00  0.00     0.006 C 
BRANCH  20  21
ATOM     21  C   UNL     1     -12.497 -14.989   8.041  1.00  0.00     0.053 C 
BRANCH  21  22
ATOM     22  C   UNL     1     -11.450 -15.806   8.734  1.00  0.00     0.041 C 
ATOM     23  O   UNL     1     -10.392 -15.263   9.150  1.00  0.00    -0.550 OA
ATOM     24  O   UNL     1     -11.656 -17.162   8.948  1.00  0.00    -0.550 OA
ENDBRANCH  21  22
ENDBRANCH  20  21
ENDBRANCH  19  20
ENDBRANCH  18  19
ENDBRANCH  17  18
ENDBRANCH  16  17
ENDBRANCH  15  16
ENDBRANCH  14  15
ENDBRANCH  13  14
ENDBRANCH   1  13
TORSDOF 20
ENDMDL
MODEL 4
REMARK VINA RESULT:    -5.365      0.971      2.457
REMARK INTER + INTRA:         -14.353
REMARK INTER:                 -12.077
REMARK INTRA:                  -2.276
REMARK UNBOUND:                -2.715
REMARK SMILES CCCCCCCCCCCCCCCCCCCCCC(=O)[O-]
REMARK SMILES IDX 12 1 11 2 10 3 9 4 8 5 7 6 6 7 5 8 4 9 3 10 2 11 1 12 13 13
REMARK SMILES IDX 14 14 15 15 16 16 17 17 18 18 19 19 20 20 21 21 22 22 23 23
REMARK SMILES IDX 24 24
REMARK H PARENT
REMARK Flexibility Score: inf
ROOT
ATOM      1  C   UNL     1      -8.586  -9.732   7.493  1.00  0.00     0.000 C 
ENDROOT
BRANCH   1   2
ATOM      2  C   UNL     1      -8.633 -11.266   7.626  1.00  0.00     0.000 C 
BRANCH   2   3
ATOM      3  C   UNL     1      -9.928 -11.880   7.067  1.00  0.00     0.000 C 
BRANCH   3   4
ATOM      4  C   UNL     1     -11.146 -11.640   7.977  1.00  0.00    -0.000 C 
BRANCH   4   5
ATOM      5  C   UNL     1     -11.040 -12.245   9.390  1.00  0.00    -0.000 C 
BRANCH   5   6
ATOM      6  C   UNL     1     -12.352 -12.823   9.953  1.00  0.00    -0.000 C 
BRANCH   6   7
ATOM      7  C   UNL     1     -13.115 -13.759   8.994  1.00  0.00    -0.000 C 
BRANCH   7   8
ATOM      8  C   UNL     1     -12.232 -14.738   8.194  1.00  0.00    -0.000 C 
BRANCH   8   9
ATOM      9  C   UNL     1     -12.417 -16.222   8.555  1.00  0.00    -0.000 C 
BRANCH   9  10
ATOM     10  C   UNL     1     -11.166 -16.840   9.202  1.00  0.00    -0.000 C 
BRANCH  10  11
ATOM     11  C   UNL     1     -10.057 -15.804   9.442  1.00  0.00    -0.003 C 
ATOM     12  C   UNL     1      -8.937 -15.888   8.405  1.00  0.00     0.004 C 
ENDBRANCH  10  11
ENDBRANCH   9  10
ENDBRANCH   8   9
ENDBRANCH   7   8
ENDBRANCH   6   7
ENDBRANCH   5   6
ENDBRANCH   4   5
ENDBRANCH   3   4
ENDBRANCH   2   3
ENDBRANCH   1   2
BRANCH   1  13
ATOM     13  C   UNL     1      -8.942  -8.952   8.772  1.00  0.00     0.000 C 
BRANCH  13  14
ATOM     14  C   UNL     1     -10.274  -8.189   8.658  1.00  0.00     0.000 C 
BRANCH  14  15
ATOM     15  C   UNL     1     -10.837  -7.782  10.029  1.00  0.00     0.000 C 
BRANCH  15  16
ATOM     16  C   UNL     1     -11.809  -8.828  10.599  1.00  0.00     0.000 C 
BRANCH  16  17
ATOM     17  C   UNL     1     -12.976  -9.136   9.646  1.00  0.00     0.000 C 
BRANCH  17  18
ATOM     18  C   UNL     1     -14.334  -9.295  10.366  1.00  0.00     0.000 C 
BRANCH  18  19
ATOM     19  C   UNL     1     -15.469  -8.481   9.719  1.00  0.00     0.000 C 
BRANCH  19  20
ATOM     20  C   UNL     1     -15.388  -6.984  10.071  1.00  0.00     0.006 C 
BRANCH  20  21
ATOM     21  C   UNL     1     -15.734  -6.091   8.872  1.00  0.00     0.053 C 
BRANCH  21  22
ATOM     22  C   UNL     1     -14.560  -5.906   7.960  1.00  0.00     0.041 C 
ATOM     23  O   UNL     1     -14.161  -6.858   7.238  1.00  0.00    -0.550 OA
ATOM     24  O   UNL     1     -13.925  -4.674   7.887  1.00  0.00    -0.550 OA
ENDBRANCH  21  22
ENDBRANCH  20  21
ENDBRANCH  19  20
ENDBRANCH  18  19
ENDBRANCH  17  18
ENDBRANCH  16  17
ENDBRANCH  15  16
ENDBRANCH  14  15
ENDBRANCH  13  14
ENDBRANCH   1  13
TORSDOF 20
ENDMDL
MODEL 5
REMARK VINA RESULT:    -5.302      2.767      8.031
REMARK INTER + INTRA:         -14.216
REMARK INTER:                 -11.014
REMARK INTRA:                  -3.202
REMARK UNBOUND:                -2.715
REMARK SMILES CCCCCCCCCCCCCCCCCCCCCC(=O)[O-]
REMARK SMILES IDX 12 1 11 2 10 3 9 4 8 5 7 6 6 7 5 8 4 9 3 10 2 11 1 12 13 13
REMARK SMILES IDX 14 14 15 15 16 16 17 17 18 18 19 19 20 20 21 21 22 22 23 23
REMARK SMILES IDX 24 24
REMARK H PARENT
REMARK Flexibility Score: inf
ROOT
ATOM      1  C   UNL     1     -11.320  -7.665   8.765  1.00  0.00     0.000 C 
ENDROOT
BRANCH   1   2
ATOM      2  C   UNL     1     -12.659  -8.122   8.157  1.00  0.00     0.000 C 
BRANCH   2   3
ATOM      3  C   UNL     1     -13.619  -6.955   7.870  1.00  0.00     0.000 C 
BRANCH   3   4
ATOM      4  C   UNL     1     -14.782  -6.875   8.876  1.00  0.00    -0.000 C 
BRANCH   4   5
ATOM      5  C   UNL     1     -14.605  -5.842  10.005  1.00  0.00    -0.000 C 
BRANCH   5   6
ATOM      6  C   UNL     1     -13.363  -4.939   9.876  1.00  0.00    -0.000 C 
BRANCH   6   7
ATOM      7  C   UNL     1     -13.621  -3.573   9.209  1.00  0.00    -0.000 C 
BRANCH   7   8
ATOM      8  C   UNL     1     -15.106  -3.194   9.045  1.00  0.00    -0.000 C 
BRANCH   8   9
ATOM      9  C   UNL     1     -15.576  -3.021   7.591  1.00  0.00    -0.000 C 
BRANCH   9  10
ATOM     10  C   UNL     1     -14.611  -3.652   6.573  1.00  0.00    -0.000 C 
BRANCH  10  11
ATOM     11  C   UNL     1     -14.204  -2.670   5.463  1.00  0.00    -0.003 C 
ATOM     12  C   UNL     1     -13.763  -1.312   6.008  1.00  0.00     0.004 C 
ENDBRANCH  10  11
ENDBRANCH   9  10
ENDBRANCH   8   9
ENDBRANCH   7   8
ENDBRANCH   6   7
ENDBRANCH   5   6
ENDBRANCH   4   5
ENDBRANCH   3   4
ENDBRANCH   2   3
ENDBRANCH   1   2
BRANCH   1  13
ATOM     13  C   UNL     1     -11.136  -7.986  10.260  1.00  0.00     0.000 C 
BRANCH  13  14
ATOM     14  C   UNL     1     -12.262  -8.870  10.826  1.00  0.00     0.000 C 
BRANCH  14  15
ATOM     15  C   UNL     1     -11.738  -9.930  11.808  1.00  0.00     0.000 C 
BRANCH  15  16
ATOM     16  C   UNL     1     -12.007 -11.365  11.323  1.00  0.00     0.000 C 
BRANCH  16  17
ATOM     17  C   UNL     1     -12.718 -11.408   9.960  1.00  0.00     0.000 C 
BRANCH  17  18
ATOM     18  C   UNL     1     -12.021 -12.326   8.931  1.00  0.00     0.000 C 
BRANCH  18  19
ATOM     19  C   UNL     1     -10.490 -12.368   9.087  1.00  0.00     0.000 C 
BRANCH  19  20
ATOM     20  C   UNL     1      -9.770 -11.540   8.007  1.00  0.00     0.006 C 
BRANCH  20  21
ATOM     21  C   UNL     1      -8.975 -10.374   8.609  1.00  0.00     0.053 C 
BRANCH  21  22
ATOM     22  C   UNL     1      -8.082  -9.729   7.593  1.00  0.00     0.041 C 
ATOM     23  O   UNL     1      -7.119 -10.370   7.094  1.00  0.00    -0.550 OA
ATOM     24  O   UNL     1      -8.332  -8.429   7.175  1.00  0.00    -0.550 OA
ENDBRANCH  21  22
ENDBRANCH  20  21
ENDBRANCH  19  20
ENDBRANCH  18  19
ENDBRANCH  17  18
ENDBRANCH  16  17
ENDBRANCH  15  16
ENDBRANCH  14  15
ENDBRANCH  13  14
ENDBRANCH   1  13
TORSDOF 20
ENDMDL
MODEL 6
REMARK VINA RESULT:    -5.226      2.001      3.172
REMARK INTER + INTRA:         -14.051
REMARK INTER:                 -10.902
REMARK INTRA:                  -3.149
REMARK UNBOUND:                -2.715
REMARK SMILES CCCCCCCCCCCCCCCCCCCCCC(=O)[O-]
REMARK SMILES IDX 12 1 11 2 10 3 9 4 8 5 7 6 6 7 5 8 4 9 3 10 2 11 1 12 13 13
REMARK SMILES IDX 14 14 15 15 16 16 17 17 18 18 19 19 20 20 21 21 22 22 23 23
REMARK SMILES IDX 24 24
REMARK H PARENT
REMARK Flexibility Score: inf
ROOT
ATOM      1  C   UNL     1     -10.524  -8.292   9.151  1.00  0.00     0.000 C 
ENDROOT
BRANCH   1   2
ATOM      2  C   UNL     1      -9.209  -9.089   9.062  1.00  0.00     0.000 C 
BRANCH   2   3
ATOM      3  C   UNL     1      -8.472  -8.887   7.727  1.00  0.00     0.000 C 
BRANCH   3   4
ATOM      4  C   UNL     1      -7.915 -10.199   7.145  1.00  0.00    -0.000 C 
BRANCH   4   5
ATOM      5  C   UNL     1      -8.610 -11.483   7.636  1.00  0.00    -0.000 C 
BRANCH   5   6
ATOM      6  C   UNL     1      -9.985 -11.766   7.001  1.00  0.00    -0.000 C 
BRANCH   6   7
ATOM      7  C   UNL     1     -10.975 -12.527   7.905  1.00  0.00    -0.000 C 
BRANCH   7   8
ATOM      8  C   UNL     1     -10.550 -12.651   9.382  1.00  0.00    -0.000 C 
BRANCH   8   9
ATOM      9  C   UNL     1     -11.698 -12.538  10.400  1.00  0.00    -0.000 C 
BRANCH   9  10
ATOM     10  C   UNL     1     -12.731 -11.464  10.018  1.00  0.00    -0.000 C 
BRANCH  10  11
ATOM     11  C   UNL     1     -13.145 -10.595  11.215  1.00  0.00    -0.003 C 
ATOM     12  C   UNL     1     -11.946 -10.065  12.002  1.00  0.00     0.004 C 
ENDBRANCH  10  11
ENDBRANCH   9  10
ENDBRANCH   8   9
ENDBRANCH   7   8
ENDBRANCH   6   7
ENDBRANCH   5   6
ENDBRANCH   4   5
ENDBRANCH   3   4
ENDBRANCH   2   3
ENDBRANCH   1   2
BRANCH   1  13
ATOM     13  C   UNL     1     -11.588  -8.664   8.102  1.00  0.00     0.000 C 
BRANCH  13  14
ATOM     14  C   UNL     1     -12.939  -7.969   8.347  1.00  0.00     0.000 C 
BRANCH  14  15
ATOM     15  C   UNL     1     -12.954  -7.159   9.653  1.00  0.00     0.000 C 
BRANCH  15  16
ATOM     16  C   UNL     1     -14.381  -6.869  10.148  1.00  0.00     0.000 C 
BRANCH  16  17
ATOM     17  C   UNL     1     -14.827  -5.425   9.864  1.00  0.00     0.000 C 
BRANCH  17  18
ATOM     18  C   UNL     1     -16.084  -5.334   8.969  1.00  0.00     0.000 C 
BRANCH  18  19
ATOM     19  C   UNL     1     -15.760  -5.184   7.472  1.00  0.00     0.000 C 
BRANCH  19  20
ATOM     20  C   UNL     1     -14.323  -4.685   7.232  1.00  0.00     0.006 C 
BRANCH  20  21
ATOM     21  C   UNL     1     -14.292  -3.373   6.437  1.00  0.00     0.053 C 
BRANCH  21  22
ATOM     22  C   UNL     1     -13.987  -2.199   7.315  1.00  0.00     0.041 C 
ATOM     23  O   UNL     1     -13.028  -1.430   7.038  1.00  0.00    -0.550 OA
ATOM     24  O   UNL     1     -14.779  -1.937   8.425  1.00  0.00    -0.550 OA
ENDBRANCH  21  22
ENDBRANCH  20  21
ENDBRANCH  19  20
ENDBRANCH  18  19
ENDBRANCH  17  18
ENDBRANCH  16  17
ENDBRANCH  15  16
ENDBRANCH  14  15
ENDBRANCH  13  14
ENDBRANCH   1  13
TORSDOF 20
ENDMDL
MODEL 7
REMARK VINA RESULT:    -5.167      2.908      8.324
REMARK INTER + INTRA:         -13.922
REMARK INTER:                 -11.572
REMARK INTRA:                  -2.350
REMARK UNBOUND:                -2.715
REMARK SMILES CCCCCCCCCCCCCCCCCCCCCC(=O)[O-]
REMARK SMILES IDX 12 1 11 2 10 3 9 4 8 5 7 6 6 7 5 8 4 9 3 10 2 11 1 12 13 13
REMARK SMILES IDX 14 14 15 15 16 16 17 17 18 18 19 19 20 20 21 21 22 22 23 23
REMARK SMILES IDX 24 24
REMARK H PARENT
REMARK Flexibility Score: inf
ROOT
ATOM      1  C   UNL     1     -10.882  -7.553   9.843  1.00  0.00     0.000 C 
ENDROOT
BRANCH   1   2
ATOM      2  C   UNL     1     -12.420  -7.558   9.926  1.00  0.00     0.000 C 
BRANCH   2   3
ATOM      3  C   UNL     1     -13.098  -7.455   8.549  1.00  0.00     0.000 C 
BRANCH   3   4
ATOM      4  C   UNL     1     -13.778  -6.093   8.316  1.00  0.00    -0.000 C 
BRANCH   4   5
ATOM      5  C   UNL     1     -15.284  -6.158   7.996  1.00  0.00    -0.000 C 
BRANCH   5   6
ATOM      6  C   UNL     1     -15.694  -5.530   6.650  1.00  0.00    -0.000 C 
BRANCH   6   7
ATOM      7  C   UNL     1     -14.583  -5.504   5.581  1.00  0.00    -0.000 C 
BRANCH   7   8
ATOM      8  C   UNL     1     -14.404  -4.155   4.855  1.00  0.00    -0.000 C 
BRANCH   8   9
ATOM      9  C   UNL     1     -14.843  -2.920   5.661  1.00  0.00    -0.000 C 
BRANCH   9  10
ATOM     10  C   UNL     1     -13.871  -1.737   5.515  1.00  0.00    -0.000 C 
BRANCH  10  11
ATOM     11  C   UNL     1     -13.252  -1.317   6.858  1.00  0.00    -0.003 C 
ATOM     12  C   UNL     1     -13.556  -2.306   7.983  1.00  0.00     0.004 C 
ENDBRANCH  10  11
ENDBRANCH   9  10
ENDBRANCH   8   9
ENDBRANCH   7   8
ENDBRANCH   6   7
ENDBRANCH   5   6
ENDBRANCH   4   5
ENDBRANCH   3   4
ENDBRANCH   2   3
ENDBRANCH   1   2
BRANCH   1  13
ATOM     13  C   UNL     1     -10.291  -8.243   8.599  1.00  0.00     0.000 C 
BRANCH  13  14
ATOM     14  C   UNL     1      -9.113  -9.175   8.934  1.00  0.00     0.000 C 
BRANCH  14  15
ATOM     15  C   UNL     1      -8.302  -9.567   7.689  1.00  0.00     0.000 C 
BRANCH  15  16
ATOM     16  C   UNL     1      -8.379 -11.073   7.387  1.00  0.00     0.000 C 
BRANCH  16  17
ATOM     17  C   UNL     1      -9.819 -11.561   7.161  1.00  0.00     0.000 C 
BRANCH  17  18
ATOM     18  C   UNL     1     -10.190 -12.799   8.009  1.00  0.00     0.000 C 
BRANCH  18  19
ATOM     19  C   UNL     1     -11.632 -12.765   8.543  1.00  0.00     0.000 C 
BRANCH  19  20
ATOM     20  C   UNL     1     -11.943 -11.465   9.306  1.00  0.00     0.006 C 
BRANCH  20  21
ATOM     21  C   UNL     1     -11.472 -11.525  10.766  1.00  0.00     0.053 C 
BRANCH  21  22
ATOM     22  C   UNL     1     -12.495 -10.959  11.702  1.00  0.00     0.041 C 
ATOM     23  O   UNL     1     -13.701 -10.869  11.348  1.00  0.00    -0.550 OA
ATOM     24  O   UNL     1     -12.122 -10.559  12.979  1.00  0.00    -0.550 OA
ENDBRANCH  21  22
ENDBRANCH  20  21
ENDBRANCH  19  20
ENDBRANCH  18  19
ENDBRANCH  17  18
ENDBRANCH  16  17
ENDBRANCH  15  16
ENDBRANCH  14  15
ENDBRANCH  13  14
ENDBRANCH   1  13
TORSDOF 20
ENDMDL
MODEL 8
REMARK VINA RESULT:    -5.145      2.049      4.127
REMARK INTER + INTRA:         -13.875
REMARK INTER:                 -10.878
REMARK INTRA:                  -2.997
REMARK UNBOUND:                -2.715
REMARK SMILES CCCCCCCCCCCCCCCCCCCCCC(=O)[O-]
REMARK SMILES IDX 12 1 11 2 10 3 9 4 8 5 7 6 6 7 5 8 4 9 3 10 2 11 1 12 13 13
REMARK SMILES IDX 14 14 15 15 16 16 17 17 18 18 19 19 20 20 21 21 22 22 23 23
REMARK SMILES IDX 24 24
REMARK H PARENT
REMARK Flexibility Score: inf
ROOT
ATOM      1  C   UNL     1     -12.283  -8.278   7.838  1.00  0.00     0.000 C 
ENDROOT
BRANCH   1   2
ATOM      2  C   UNL     1     -11.202  -7.681   8.760  1.00  0.00     0.000 C 
BRANCH   2   3
ATOM      3  C   UNL     1     -10.809  -8.619   9.913  1.00  0.00     0.000 C 
BRANCH   3   4
ATOM      4  C   UNL     1     -11.849  -8.641  11.048  1.00  0.00    -0.000 C 
BRANCH   4   5
ATOM      5  C   UNL     1     -12.215 -10.042  11.577  1.00  0.00    -0.000 C 
BRANCH   5   6
ATOM      6  C   UNL     1     -13.304 -10.780  10.775  1.00  0.00    -0.000 C 
BRANCH   6   7
ATOM      7  C   UNL     1     -12.808 -12.007   9.984  1.00  0.00    -0.000 C 
BRANCH   7   8
ATOM      8  C   UNL     1     -11.394 -12.497  10.354  1.00  0.00    -0.000 C 
BRANCH   8   9
ATOM      9  C   UNL     1     -10.270 -11.991   9.434  1.00  0.00    -0.000 C 
BRANCH   9  10
ATOM     10  C   UNL     1     -10.578 -12.205   7.942  1.00  0.00    -0.000 C 
BRANCH  10  11
ATOM     11  C   UNL     1      -9.442 -11.714   7.031  1.00  0.00    -0.003 C 
ATOM     12  C   UNL     1      -8.613 -10.600   7.670  1.00  0.00     0.004 C 
ENDBRANCH  10  11
ENDBRANCH   9  10
ENDBRANCH   8   9
ENDBRANCH   7   8
ENDBRANCH   6   7
ENDBRANCH   5   6
ENDBRANCH   4   5
ENDBRANCH   3   4
ENDBRANCH   2   3
ENDBRANCH   1   2
BRANCH   1  13
ATOM     13  C   UNL     1     -13.541  -7.409   7.656  1.00  0.00     0.000 C 
BRANCH  13  14
ATOM     14  C   UNL     1     -14.600  -7.652   8.746  1.00  0.00     0.000 C 
BRANCH  14  15
ATOM     15  C   UNL     1     -15.098  -6.344   9.382  1.00  0.00     0.000 C 
BRANCH  15  16
ATOM     16  C   UNL     1     -14.017  -5.658  10.235  1.00  0.00     0.000 C 
BRANCH  16  17
ATOM     17  C   UNL     1     -13.512  -4.346   9.612  1.00  0.00     0.000 C 
BRANCH  17  18
ATOM     18  C   UNL     1     -14.494  -3.732   8.589  1.00  0.00     0.000 C 
BRANCH  18  19
ATOM     19  C   UNL     1     -13.792  -3.006   7.427  1.00  0.00     0.000 C 
BRANCH  19  20
ATOM     20  C   UNL     1     -14.709  -2.844   6.201  1.00  0.00     0.006 C 
BRANCH  20  21
ATOM     21  C   UNL     1     -14.313  -3.785   5.056  1.00  0.00     0.053 C 
BRANCH  21  22
ATOM     22  C   UNL     1     -15.352  -4.839   4.819  1.00  0.00     0.041 C 
ATOM     23  O   UNL     1     -15.647  -5.189   3.646  1.00  0.00    -0.550 OA
ATOM     24  O   UNL     1     -15.973  -5.455   5.898  1.00  0.00    -0.550 OA
ENDBRANCH  21  22
ENDBRANCH  20  21
ENDBRANCH  19  20
ENDBRANCH  18  19
ENDBRANCH  17  18
ENDBRANCH  16  17
ENDBRANCH  15  16
ENDBRANCH  14  15
ENDBRANCH  13  14
ENDBRANCH   1  13
TORSDOF 20
ENDMDL
MODEL 9
REMARK VINA RESULT:    -5.101      3.237      8.525
REMARK INTER + INTRA:         -13.779
REMARK INTER:                 -11.320
REMARK INTRA:                  -2.459
REMARK UNBOUND:                -2.715
REMARK SMILES CCCCCCCCCCCCCCCCCCCCCC(=O)[O-]
REMARK SMILES IDX 12 1 11 2 10 3 9 4 8 5 7 6 6 7 5 8 4 9 3 10 2 11 1 12 13 13
REMARK SMILES IDX 14 14 15 15 16 16 17 17 18 18 19 19 20 20 21 21 22 22 23 23
REMARK SMILES IDX 24 24
REMARK H PARENT
REMARK Flexibility Score: inf
ROOT
ATOM      1  C   UNL     1     -12.931  -9.155   9.632  1.00  0.00     0.000 C 
ENDROOT
BRANCH   1   2
ATOM      2  C   UNL     1     -14.275  -9.210  10.383  1.00  0.00     0.000 C 
BRANCH   2   3
ATOM      3  C   UNL     1     -15.364  -8.340   9.733  1.00  0.00     0.000 C 
BRANCH   3   4
ATOM      4  C   UNL     1     -14.802  -7.058   9.091  1.00  0.00    -0.000 C 
BRANCH   4   5
ATOM      5  C   UNL     1     -14.770  -5.823  10.011  1.00  0.00    -0.000 C 
BRANCH   5   6
ATOM      6  C   UNL     1     -13.473  -4.993   9.947  1.00  0.00    -0.000 C 
BRANCH   6   7
ATOM      7  C   UNL     1     -13.622  -3.605   9.292  1.00  0.00    -0.000 C 
BRANCH   7   8
ATOM      8  C   UNL     1     -14.996  -3.327   8.652  1.00  0.00    -0.000 C 
BRANCH   8   9
ATOM      9  C   UNL     1     -15.005  -3.311   7.113  1.00  0.00    -0.000 C 
BRANCH   9  10
ATOM     10  C   UNL     1     -15.508  -4.631   6.506  1.00  0.00    -0.000 C 
BRANCH  10  11
ATOM     11  C   UNL     1     -14.734  -5.028   5.239  1.00  0.00    -0.003 C 
ATOM     12  C   UNL     1     -14.339  -3.822   4.387  1.00  0.00     0.004 C 
ENDBRANCH  10  11
ENDBRANCH   9  10
ENDBRANCH   8   9
ENDBRANCH   7   8
ENDBRANCH   6   7
ENDBRANCH   5   6
ENDBRANCH   4   5
ENDBRANCH   3   4
ENDBRANCH   2   3
ENDBRANCH   1   2
BRANCH   1  13
ATOM     13  C   UNL     1     -11.727  -8.699  10.478  1.00  0.00     0.000 C 
BRANCH  13  14
ATOM     14  C   UNL     1     -10.902  -7.591   9.798  1.00  0.00     0.000 C 
BRANCH  14  15
ATOM     15  C   UNL     1     -10.146  -8.099   8.560  1.00  0.00     0.000 C 
BRANCH  15  16
ATOM     16  C   UNL     1      -9.148  -9.219   8.899  1.00  0.00     0.000 C 
BRANCH  16  17
ATOM     17  C   UNL     1      -8.650  -9.970   7.654  1.00  0.00     0.000 C 
BRANCH  17  18
ATOM     18  C   UNL     1      -9.073 -11.456   7.620  1.00  0.00     0.000 C 
BRANCH  18  19
ATOM     19  C   UNL     1     -10.571 -11.660   7.337  1.00  0.00     0.000 C 
BRANCH  19  20
ATOM     20  C   UNL     1     -11.327 -12.213   8.560  1.00  0.00     0.006 C 
BRANCH  20  21
ATOM     21  C   UNL     1     -10.595 -13.398   9.203  1.00  0.00     0.053 C 
BRANCH  21  22
ATOM     22  C   UNL     1     -11.124 -14.710   8.712  1.00  0.00     0.041 C 
ATOM     23  O   UNL     1     -10.450 -15.763   8.859  1.00  0.00    -0.550 OA
ATOM     24  O   UNL     1     -12.378 -14.774   8.118  1.00  0.00    -0.550 OA
ENDBRANCH  21  22
ENDBRANCH  20  21
ENDBRANCH  19  20
ENDBRANCH  18  19
ENDBRANCH  17  18
ENDBRANCH  16  17
ENDBRANCH  15  16
ENDBRANCH  14  15
ENDBRANCH  13  14
ENDBRANCH   1  13
TORSDOF 20
ENDMDL
