MODEL 1
REMARK VINA RESULT:    -5.570      0.000      0.000
REMARK INTER + INTRA:          -5.896
REMARK INTER:                  -5.896
REMARK INTRA:                   0.000
REMARK UNBOUND:                 0.000
REMARK SMILES O=c1ccc2cc(O)c(O)cc2o1
REMARK SMILES IDX 4 1 3 2 2 3 1 4 13 5 12 6 11 7 9 8 7 9 6 10 5 11 8 12 10 14
REMARK H PARENT 8 13 10 15
REMARK Flexibility Score: inf
ROOT
ATOM      1  C   UNL     1      -6.878  -6.716   8.208  1.00  0.00     0.019 A 
ATOM      2  C   UNL     1      -7.251  -7.387   9.373  1.00  0.00     0.094 A 
ATOM      3  C   UNL     1      -8.576  -7.297   9.812  1.00  0.00     0.336 A 
ATOM      4  O   UNL     1      -8.932  -7.896  10.861  1.00  0.00    -0.246 OA
ATOM      5  O   UNL     1      -9.466  -6.583   9.128  1.00  0.00    -0.423 OA
ATOM      6  C   UNL     1      -9.152  -5.928   8.013  1.00  0.00     0.142 A 
ATOM      7  C   UNL     1     -10.130  -5.193   7.336  1.00  0.00     0.098 A 
ATOM      8  C   UNL     1      -9.806  -4.500   6.158  1.00  0.00     0.161 A 
ATOM      9  C   UNL     1      -8.492  -4.545   5.657  1.00  0.00     0.158 A 
ATOM     10  C   UNL     1      -7.511  -5.280   6.333  1.00  0.00     0.062 A 
ATOM     11  C   UNL     1      -7.834  -5.973   7.509  1.00  0.00     0.022 A 
ENDROOT
BRANCH   9  12
ATOM     12  O   UNL     1      -8.143  -3.867   4.490  1.00  0.00    -0.504 OA
ATOM     13  H   UNL     1      -8.534  -2.962   4.256  1.00  0.00     0.293 HD
ENDBRANCH   9  12
BRANCH   8  14
ATOM     14  O   UNL     1     -10.784  -3.768   5.487  1.00  0.00    -0.504 OA
ATOM     15  H   UNL     1     -10.633  -3.416   4.549  1.00  0.00     0.293 HD
ENDBRANCH   8  14
TORSDOF 2
ENDMDL
MODEL 2
REMARK VINA RESULT:    -5.401     16.385     18.013
REMARK INTER + INTRA:          -5.717
REMARK INTER:                  -5.717
REMARK INTRA:                   0.000
REMARK UNBOUND:                 0.000
REMARK SMILES O=c1ccc2cc(O)c(O)cc2o1
REMARK SMILES IDX 4 1 3 2 2 3 1 4 13 5 12 6 11 7 9 8 7 9 6 10 5 11 8 12 10 14
REMARK H PARENT 8 13 10 15
REMARK Flexibility Score: inf
ROOT
ATOM      1  C   UNL     1     -19.742  -4.036  18.458  1.00  0.00     0.019 A 
ATOM      2  C   UNL     1     -19.781  -3.446  17.194  1.00  0.00     0.094 A 
ATOM      3  C   UNL     1     -20.500  -2.258  17.023  1.00  0.00     0.336 A 
ATOM      4  O   UNL     1     -20.547  -1.710  15.891  1.00  0.00    -0.246 OA
ATOM      5  O   UNL     1     -21.134  -1.700  18.052  1.00  0.00    -0.423 OA
ATOM      6  C   UNL     1     -21.122  -2.230  19.272  1.00  0.00     0.142 A 
ATOM      7  C   UNL     1     -21.807  -1.599  20.314  1.00  0.00     0.098 A 
ATOM      8  C   UNL     1     -21.797  -2.151  21.605  1.00  0.00     0.161 A 
ATOM      9  C   UNL     1     -21.096  -3.346  21.851  1.00  0.00     0.158 A 
ATOM     10  C   UNL     1     -20.409  -3.980  20.809  1.00  0.00     0.062 A 
ATOM     11  C   UNL     1     -20.417  -3.428  19.520  1.00  0.00     0.022 A 
ENDROOT
BRANCH   9  12
ATOM     12  O   UNL     1     -21.070  -3.916  23.123  1.00  0.00    -0.504 OA
ATOM     13  H   UNL     1     -21.708  -4.655  23.394  1.00  0.00     0.293 HD
ENDBRANCH   9  12
BRANCH   8  14
ATOM     14  O   UNL     1     -22.483  -1.519  22.641  1.00  0.00    -0.504 OA
ATOM     15  H   UNL     1     -22.671  -0.524  22.623  1.00  0.00     0.293 HD
ENDBRANCH   8  14
TORSDOF 2
ENDMDL
MODEL 3
REMARK VINA RESULT:    -5.378     17.491     18.905
REMARK INTER + INTRA:          -5.692
REMARK INTER:                  -5.692
REMARK INTRA:                   0.000
REMARK UNBOUND:                 0.000
REMARK SMILES O=c1ccc2cc(O)c(O)cc2o1
REMARK SMILES IDX 4 1 3 2 2 3 1 4 13 5 12 6 11 7 9 8 7 9 6 10 5 11 8 12 10 14
REMARK H PARENT 8 13 10 15
REMARK Flexibility Score: inf
ROOT
ATOM      1  C   UNL     1     -21.785  -2.420  22.788  1.00  0.00     0.019 A 
ATOM      2  C   UNL     1     -22.180  -1.125  23.125  1.00  0.00     0.094 A 
ATOM      3  C   UNL     1     -22.204  -0.144  22.129  1.00  0.00     0.336 A 
ATOM      4  O   UNL     1     -22.558   1.031  22.413  1.00  0.00    -0.246 OA
ATOM      5  O   UNL     1     -21.857  -0.443  20.879  1.00  0.00    -0.423 OA
ATOM      6  C   UNL     1     -21.475  -1.664  20.516  1.00  0.00     0.142 A 
ATOM      7  C   UNL     1     -21.121  -1.919  19.188  1.00  0.00     0.098 A 
ATOM      8  C   UNL     1     -20.718  -3.206  18.798  1.00  0.00     0.161 A 
ATOM      9  C   UNL     1     -20.669  -4.244  19.747  1.00  0.00     0.158 A 
ATOM     10  C   UNL     1     -21.022  -3.991  21.078  1.00  0.00     0.062 A 
ATOM     11  C   UNL     1     -21.426  -2.706  21.468  1.00  0.00     0.022 A 
ENDROOT
BRANCH   9  12
ATOM     12  O   UNL     1     -20.272  -5.531  19.386  1.00  0.00    -0.504 OA
ATOM     13  H   UNL     1     -20.603  -5.979  18.541  1.00  0.00     0.293 HD
ENDBRANCH   9  12
BRANCH   8  14
ATOM     14  O   UNL     1     -20.365  -3.456  17.472  1.00  0.00    -0.504 OA
ATOM     15  H   UNL     1     -19.429  -3.749  17.218  1.00  0.00     0.293 HD
ENDBRANCH   8  14
TORSDOF 2
ENDMDL
MODEL 4
REMARK VINA RESULT:    -5.311      1.136      2.272
REMARK INTER + INTRA:          -5.622
REMARK INTER:                  -5.622
REMARK INTRA:                   0.000
REMARK UNBOUND:                 0.000
REMARK SMILES O=c1ccc2cc(O)c(O)cc2o1
REMARK SMILES IDX 4 1 3 2 2 3 1 4 13 5 12 6 11 7 9 8 7 9 6 10 5 11 8 12 10 14
REMARK H PARENT 8 13 10 15
REMARK Flexibility Score: inf
ROOT
ATOM      1  C   UNL     1      -9.829  -6.847   9.019  1.00  0.00     0.019 A 
ATOM      2  C   UNL     1      -8.930  -7.722   9.629  1.00  0.00     0.094 A 
ATOM      3  C   UNL     1      -7.651  -7.869   9.082  1.00  0.00     0.336 A 
ATOM      4  O   UNL     1      -6.825  -8.654   9.618  1.00  0.00    -0.246 OA
ATOM      5  O   UNL     1      -7.299  -7.183   7.997  1.00  0.00    -0.423 OA
ATOM      6  C   UNL     1      -8.125  -6.339   7.385  1.00  0.00     0.142 A 
ATOM      7  C   UNL     1      -7.699  -5.645   6.249  1.00  0.00     0.098 A 
ATOM      8  C   UNL     1      -8.566  -4.752   5.599  1.00  0.00     0.161 A 
ATOM      9  C   UNL     1      -9.868  -4.554   6.093  1.00  0.00     0.158 A 
ATOM     10  C   UNL     1     -10.297  -5.247   7.231  1.00  0.00     0.062 A 
ATOM     11  C   UNL     1      -9.431  -6.139   7.881  1.00  0.00     0.022 A 
ENDROOT
BRANCH   9  12
ATOM     12  O   UNL     1     -10.749  -3.673   5.466  1.00  0.00    -0.504 OA
ATOM     13  H   UNL     1     -10.809  -2.696   5.727  1.00  0.00     0.293 HD
ENDBRANCH   9  12
BRANCH   8  14
ATOM     14  O   UNL     1      -8.137  -4.063   4.465  1.00  0.00    -0.504 OA
ATOM     15  H   UNL     1      -7.919  -3.074   4.496  1.00  0.00     0.293 HD
ENDBRANCH   8  14
TORSDOF 2
ENDMDL
MODEL 5
REMARK VINA RESULT:    -5.260     17.564     18.887
REMARK INTER + INTRA:          -5.567
REMARK INTER:                  -5.567
REMARK INTRA:                   0.000
REMARK UNBOUND:                 0.000
REMARK SMILES O=c1ccc2cc(O)c(O)cc2o1
REMARK SMILES IDX 4 1 3 2 2 3 1 4 13 5 12 6 11 7 9 8 7 9 6 10 5 11 8 12 10 14
REMARK H PARENT 8 13 10 15
REMARK Flexibility Score: inf
ROOT
ATOM      1  C   UNL     1     -21.510  -2.269  18.337  1.00  0.00     0.019 A 
ATOM      2  C   UNL     1     -21.067  -3.590  18.403  1.00  0.00     0.094 A 
ATOM      3  C   UNL     1     -20.777  -4.146  19.653  1.00  0.00     0.336 A 
ATOM      4  O   UNL     1     -20.375  -5.337  19.733  1.00  0.00    -0.246 OA
ATOM      5  O   UNL     1     -20.923  -3.425  20.761  1.00  0.00    -0.423 OA
ATOM      6  C   UNL     1     -21.343  -2.162  20.743  1.00  0.00     0.142 A 
ATOM      7  C   UNL     1     -21.477  -1.454  21.941  1.00  0.00     0.098 A 
ATOM      8  C   UNL     1     -21.921  -0.122  21.929  1.00  0.00     0.161 A 
ATOM      9  C   UNL     1     -22.231   0.503  20.706  1.00  0.00     0.158 A 
ATOM     10  C   UNL     1     -22.097  -0.205  19.506  1.00  0.00     0.062 A 
ATOM     11  C   UNL     1     -21.655  -1.535  19.518  1.00  0.00     0.022 A 
ENDROOT
BRANCH   9  12
ATOM     12  O   UNL     1     -22.673   1.825  20.666  1.00  0.00    -0.504 OA
ATOM     13  H   UNL     1     -23.107   2.272  21.465  1.00  0.00     0.293 HD
ENDBRANCH   9  12
BRANCH   8  14
ATOM     14  O   UNL     1     -22.053   0.582  23.125  1.00  0.00    -0.504 OA
ATOM     15  H   UNL     1     -21.254   0.999  23.586  1.00  0.00     0.293 HD
ENDBRANCH   8  14
TORSDOF 2
ENDMDL
MODEL 6
REMARK VINA RESULT:    -5.182      2.014      2.485
REMARK INTER + INTRA:          -5.485
REMARK INTER:                  -5.485
REMARK INTRA:                   0.000
REMARK UNBOUND:                 0.000
REMARK SMILES O=c1ccc2cc(O)c(O)cc2o1
REMARK SMILES IDX 4 1 3 2 2 3 1 4 13 5 12 6 11 7 9 8 7 9 6 10 5 11 8 12 10 14
REMARK H PARENT 8 13 10 15
REMARK Flexibility Score: inf
ROOT
ATOM      1  C   UNL     1      -7.789  -7.903   6.397  1.00  0.00     0.019 A 
ATOM      2  C   UNL     1      -7.383  -8.855   7.333  1.00  0.00     0.094 A 
ATOM      3  C   UNL     1      -6.864  -8.422   8.558  1.00  0.00     0.336 A 
ATOM      4  O   UNL     1      -6.493  -9.265   9.415  1.00  0.00    -0.246 OA
ATOM      5  O   UNL     1      -6.761  -7.122   8.824  1.00  0.00    -0.423 OA
ATOM      6  C   UNL     1      -7.136  -6.183   7.960  1.00  0.00     0.142 A 
ATOM      7  C   UNL     1      -7.004  -4.832   8.296  1.00  0.00     0.098 A 
ATOM      8  C   UNL     1      -7.399  -3.836   7.389  1.00  0.00     0.161 A 
ATOM      9  C   UNL     1      -7.929  -4.197   6.137  1.00  0.00     0.158 A 
ATOM     10  C   UNL     1      -8.062  -5.549   5.799  1.00  0.00     0.062 A 
ATOM     11  C   UNL     1      -7.669  -6.545   6.704  1.00  0.00     0.022 A 
ENDROOT
BRANCH   9  12
ATOM     12  O   UNL     1      -8.328  -3.228   5.218  1.00  0.00    -0.504 OA
ATOM     13  H   UNL     1      -7.954  -2.287   5.231  1.00  0.00     0.293 HD
ENDBRANCH   9  12
BRANCH   8  14
ATOM     14  O   UNL     1      -7.264  -2.490   7.728  1.00  0.00    -0.504 OA
ATOM     15  H   UNL     1      -6.356  -2.071   7.889  1.00  0.00     0.293 HD
ENDBRANCH   8  14
TORSDOF 2
ENDMDL
MODEL 7
REMARK VINA RESULT:    -5.175     16.066     17.774
REMARK INTER + INTRA:          -5.477
REMARK INTER:                  -5.477
REMARK INTRA:                   0.000
REMARK UNBOUND:                 0.000
REMARK SMILES O=c1ccc2cc(O)c(O)cc2o1
REMARK SMILES IDX 4 1 3 2 2 3 1 4 13 5 12 6 11 7 9 8 7 9 6 10 5 11 8 12 10 14
REMARK H PARENT 8 13 10 15
REMARK Flexibility Score: inf
ROOT
ATOM      1  C   UNL     1     -20.960  -1.937  17.846  1.00  0.00     0.019 A 
ATOM      2  C   UNL     1     -20.199  -2.618  16.895  1.00  0.00     0.094 A 
ATOM      3  C   UNL     1     -19.483  -3.754  17.287  1.00  0.00     0.336 A 
ATOM      4  O   UNL     1     -18.791  -4.382  16.444  1.00  0.00    -0.246 OA
ATOM      5  O   UNL     1     -19.530  -4.178  18.548  1.00  0.00    -0.423 OA
ATOM      6  C   UNL     1     -20.242  -3.558  19.485  1.00  0.00     0.142 A 
ATOM      7  C   UNL     1     -20.252  -4.049  20.794  1.00  0.00     0.098 A 
ATOM      8  C   UNL     1     -21.003  -3.401  21.788  1.00  0.00     0.161 A 
ATOM      9  C   UNL     1     -21.747  -2.251  21.466  1.00  0.00     0.158 A 
ATOM     10  C   UNL     1     -21.738  -1.757  20.156  1.00  0.00     0.062 A 
ATOM     11  C   UNL     1     -20.990  -2.405  19.163  1.00  0.00     0.022 A 
ENDROOT
BRANCH   9  12
ATOM     12  O   UNL     1     -22.500  -1.588  22.433  1.00  0.00    -0.504 OA
ATOM     13  H   UNL     1     -23.211  -2.059  22.979  1.00  0.00     0.293 HD
ENDBRANCH   9  12
BRANCH   8  14
ATOM     14  O   UNL     1     -21.010  -3.894  23.092  1.00  0.00    -0.504 OA
ATOM     15  H   UNL     1     -21.341  -3.335  23.869  1.00  0.00     0.293 HD
ENDBRANCH   8  14
TORSDOF 2
ENDMDL
MODEL 8
REMARK VINA RESULT:    -5.055      2.118      2.473
REMARK INTER + INTRA:          -5.351
REMARK INTER:                  -5.351
REMARK INTRA:                   0.000
REMARK UNBOUND:                 0.000
REMARK SMILES O=c1ccc2cc(O)c(O)cc2o1
REMARK SMILES IDX 4 1 3 2 2 3 1 4 13 5 12 6 11 7 9 8 7 9 6 10 5 11 8 12 10 14
REMARK H PARENT 8 13 10 15
REMARK Flexibility Score: inf
ROOT
ATOM      1  C   UNL     1      -6.630  -6.679   9.055  1.00  0.00     0.019 A 
ATOM      2  C   UNL     1      -6.788  -8.057   8.904  1.00  0.00     0.094 A 
ATOM      3  C   UNL     1      -7.328  -8.551   7.712  1.00  0.00     0.336 A 
ATOM      4  O   UNL     1      -7.479  -9.791   7.557  1.00  0.00    -0.246 OA
ATOM      5  O   UNL     1      -7.685  -7.717   6.738  1.00  0.00    -0.423 OA
ATOM      6  C   UNL     1      -7.551  -6.397   6.841  1.00  0.00     0.142 A 
ATOM      7  C   UNL     1      -7.944  -5.571   5.784  1.00  0.00     0.098 A 
ATOM      8  C   UNL     1      -7.805  -4.178   5.886  1.00  0.00     0.161 A 
ATOM      9  C   UNL     1      -7.269  -3.610   7.057  1.00  0.00     0.158 A 
ATOM     10  C   UNL     1      -6.875  -4.436   8.117  1.00  0.00     0.062 A 
ATOM     11  C   UNL     1      -7.013  -5.827   8.015  1.00  0.00     0.022 A 
ENDROOT
BRANCH   9  12
ATOM     12  O   UNL     1      -7.120  -2.230   7.184  1.00  0.00    -0.504 OA
ATOM     13  H   UNL     1      -7.826  -1.650   7.622  1.00  0.00     0.293 HD
ENDBRANCH   9  12
BRANCH   8  14
ATOM     14  O   UNL     1      -8.198  -3.357   4.830  1.00  0.00    -0.504 OA
ATOM     15  H   UNL     1      -8.476  -3.741   3.935  1.00  0.00     0.293 HD
ENDBRANCH   8  14
TORSDOF 2
ENDMDL
