MODEL 1
REMARK VINA RESULT:    -6.688      0.000      0.000
REMARK INTER + INTRA:          -8.409
REMARK INTER:                  -8.057
REMARK INTRA:                  -0.353
REMARK UNBOUND:                -0.353
REMARK SMILES Oc1cc(O)c2cc(O)c(-c3ccc(O)c(O)c3)[o+]c2c1.[Cl-]
REMARK SMILES IDX 10 1 19 2 20 3 21 4 2 5 3 6 4 7 6 8 7 9 8 10 11 11 12 12
REMARK SMILES IDX 13 13 14 14 18 15 16 16 15 17 17 19 9 21 1 23 5 25
REMARK H PARENT 15 18 17 20 9 22 1 24 5 26
REMARK Flexibility Score: inf
ROOT
ATOM      1  C   UNL     1      22.775   0.615 103.056  1.00  0.00     0.402 A 
ATOM      2  O   UNL     1      23.735   0.013 103.753  1.00  0.00    -0.202 OA
ATOM      3  C   UNL     1      24.263  -1.157 103.410  1.00  0.00     0.368 A 
ATOM      4  C   UNL     1      25.270  -1.709 104.205  1.00  0.00     0.162 A 
ATOM      5  C   UNL     1      25.844  -2.935 103.866  1.00  0.00     0.128 A 
ATOM      6  C   UNL     1      25.410  -3.615 102.724  1.00  0.00     0.093 A 
ATOM      7  C   UNL     1      24.401  -3.085 101.910  1.00  0.00     0.136 A 
ATOM      8  C   UNL     1      23.813  -1.839 102.252  1.00  0.00     0.125 A 
ATOM      9  C   UNL     1      22.789  -1.237 101.504  1.00  0.00     0.078 A 
ATOM     10  C   UNL     1      22.254  -0.009 101.907  1.00  0.00     0.223 A 
ENDROOT
BRANCH   1  11
ATOM     11  C   UNL     1      22.276   1.924 103.537  1.00  0.00     0.087 A 
ATOM     12  C   UNL     1      22.823   3.132 103.071  1.00  0.00     0.022 A 
ATOM     13  C   UNL     1      22.351   4.355 103.557  1.00  0.00     0.051 A 
ATOM     14  C   UNL     1      21.336   4.388 104.523  1.00  0.00     0.157 A 
ATOM     15  C   UNL     1      21.273   1.962 104.520  1.00  0.00     0.068 A 
ATOM     16  C   UNL     1      20.798   3.184 105.008  1.00  0.00     0.158 A 
BRANCH  14  17
ATOM     17  O   UNL     1      20.866   5.609 105.004  1.00  0.00    -0.504 OA
ATOM     18  H   UNL     1      19.930   5.705 105.381  1.00  0.00     0.293 HD
ENDBRANCH  14  17
BRANCH  16  19
ATOM     19  O   UNL     1      19.792   3.183 105.974  1.00  0.00    -0.504 OA
ATOM     20  H   UNL     1      19.897   3.661 106.860  1.00  0.00     0.293 HD
ENDBRANCH  16  19
ENDBRANCH   1  11
BRANCH  10  21
ATOM     21  O   UNL     1      21.203   0.564 101.192  1.00  0.00    -0.500 OA
ATOM     22  H   UNL     1      20.919   0.210 100.287  1.00  0.00     0.294 HD
ENDBRANCH  10  21
BRANCH   5  23
ATOM     23  O   UNL     1      26.848  -3.468 104.672  1.00  0.00    -0.507 OA
ATOM     24  H   UNL     1      27.531  -2.876 105.130  1.00  0.00     0.293 HD
ENDBRANCH   5  23
BRANCH   7  25
ATOM     25  O   UNL     1      24.026  -3.824 100.784  1.00  0.00    -0.507 OA
ATOM     26  H   UNL     1      24.201  -3.540  99.832  1.00  0.00     0.293 HD
ENDBRANCH   7  25
TORSDOF 6
ENDMDL
MODEL 2
REMARK VINA RESULT:    -6.543      4.457      5.745
REMARK INTER + INTRA:          -8.235
REMARK INTER:                  -7.883
REMARK INTRA:                  -0.352
REMARK UNBOUND:                -0.353
REMARK SMILES Oc1cc(O)c2cc(O)c(-c3ccc(O)c(O)c3)[o+]c2c1.[Cl-]
REMARK SMILES IDX 10 1 19 2 20 3 21 4 2 5 3 6 4 7 6 8 7 9 8 10 11 11 12 12
REMARK SMILES IDX 13 13 14 14 18 15 16 16 15 17 17 19 9 21 1 23 5 25
REMARK H PARENT 15 18 17 20 9 22 1 24 5 26
REMARK Flexibility Score: inf
ROOT
ATOM      1  C   UNL     1      25.764   3.778 102.941  1.00  0.00     0.402 A 
ATOM      2  O   UNL     1      26.346   2.850 102.186  1.00  0.00    -0.202 OA
ATOM      3  C   UNL     1      27.540   2.334 102.455  1.00  0.00     0.368 A 
ATOM      4  C   UNL     1      28.068   1.361 101.602  1.00  0.00     0.162 A 
ATOM      5  C   UNL     1      29.318   0.799 101.862  1.00  0.00     0.128 A 
ATOM      6  C   UNL     1      30.048   1.210 102.982  1.00  0.00     0.093 A 
ATOM      7  C   UNL     1      29.542   2.184 103.852  1.00  0.00     0.136 A 
ATOM      8  C   UNL     1      28.271   2.759 103.591  1.00  0.00     0.125 A 
ATOM      9  C   UNL     1      27.691   3.750 104.400  1.00  0.00     0.078 A 
ATOM     10  C   UNL     1      26.435   4.274 104.074  1.00  0.00     0.223 A 
ENDROOT
BRANCH   1  11
ATOM     11  C   UNL     1      24.424   4.268 102.542  1.00  0.00     0.087 A 
ATOM     12  C   UNL     1      23.250   3.699 103.065  1.00  0.00     0.022 A 
ATOM     13  C   UNL     1      21.997   4.162 102.655  1.00  0.00     0.051 A 
ATOM     14  C   UNL     1      21.899   5.191 101.708  1.00  0.00     0.157 A 
ATOM     15  C   UNL     1      24.320   5.285 101.578  1.00  0.00     0.068 A 
ATOM     16  C   UNL     1      23.067   5.752 101.165  1.00  0.00     0.158 A 
BRANCH  14  17
ATOM     17  O   UNL     1      20.648   5.653 101.302  1.00  0.00    -0.504 OA
ATOM     18  H   UNL     1      20.144   6.356 101.833  1.00  0.00     0.293 HD
ENDBRANCH  14  17
BRANCH  16  19
ATOM     19  O   UNL     1      23.003   6.772 100.217  1.00  0.00    -0.504 OA
ATOM     20  H   UNL     1      23.148   7.743 100.461  1.00  0.00     0.293 HD
ENDBRANCH  16  19
ENDBRANCH   1  11
BRANCH  10  21
ATOM     21  O   UNL     1      25.881   5.292 104.850  1.00  0.00    -0.500 OA
ATOM     22  H   UNL     1      26.410   6.119 105.101  1.00  0.00     0.294 HD
ENDBRANCH  10  21
BRANCH   5  23
ATOM     23  O   UNL     1      29.828  -0.170 101.000  1.00  0.00    -0.507 OA
ATOM     24  H   UNL     1      30.655   0.000 100.441  1.00  0.00     0.293 HD
ENDBRANCH   5  23
BRANCH   7  25
ATOM     25  O   UNL     1      30.330   2.538 104.952  1.00  0.00    -0.507 OA
ATOM     26  H   UNL     1      29.997   2.572 105.904  1.00  0.00     0.293 HD
ENDBRANCH   7  25
TORSDOF 6
ENDMDL
MODEL 3
REMARK VINA RESULT:    -5.993      2.911      3.475
REMARK INTER + INTRA:          -7.572
REMARK INTER:                  -7.351
REMARK INTRA:                  -0.221
REMARK UNBOUND:                -0.353
REMARK SMILES Oc1cc(O)c2cc(O)c(-c3ccc(O)c(O)c3)[o+]c2c1.[Cl-]
REMARK SMILES IDX 10 1 19 2 20 3 21 4 2 5 3 6 4 7 6 8 7 9 8 10 11 11 12 12
REMARK SMILES IDX 13 13 14 14 18 15 16 16 15 17 17 19 9 21 1 23 5 25
REMARK H PARENT 15 18 17 20 9 22 1 24 5 26
REMARK Flexibility Score: inf
ROOT
ATOM      1  C   UNL     1      23.862   2.588 102.999  1.00  0.00     0.402 A 
ATOM      2  O   UNL     1      25.129   2.995 102.998  1.00  0.00    -0.202 OA
ATOM      3  C   UNL     1      26.163   2.161 102.964  1.00  0.00     0.368 A 
ATOM      4  C   UNL     1      27.458   2.685 102.963  1.00  0.00     0.162 A 
ATOM      5  C   UNL     1      28.563   1.833 102.924  1.00  0.00     0.128 A 
ATOM      6  C   UNL     1      28.374   0.448 102.884  1.00  0.00     0.093 A 
ATOM      7  C   UNL     1      27.086  -0.103 102.885  1.00  0.00     0.136 A 
ATOM      8  C   UNL     1      25.960   0.760 102.927  1.00  0.00     0.125 A 
ATOM      9  C   UNL     1      24.634   0.298 102.943  1.00  0.00     0.078 A 
ATOM     10  C   UNL     1      23.574   1.210 102.990  1.00  0.00     0.223 A 
ENDROOT
BRANCH   1  11
ATOM     11  C   UNL     1      22.796   3.615 103.029  1.00  0.00     0.087 A 
ATOM     12  C   UNL     1      22.582   4.481 101.942  1.00  0.00     0.022 A 
ATOM     13  C   UNL     1      21.586   5.458 102.003  1.00  0.00     0.051 A 
ATOM     14  C   UNL     1      20.797   5.594 103.154  1.00  0.00     0.157 A 
ATOM     15  C   UNL     1      22.017   3.768 104.188  1.00  0.00     0.068 A 
ATOM     16  C   UNL     1      21.017   4.746 104.253  1.00  0.00     0.158 A 
BRANCH  14  17
ATOM     17  O   UNL     1      19.802   6.568 103.211  1.00  0.00    -0.504 OA
ATOM     18  H   UNL     1      19.142   6.697 102.452  1.00  0.00     0.293 HD
ENDBRANCH  14  17
BRANCH  16  19
ATOM     19  O   UNL     1      20.255   4.860 105.414  1.00  0.00    -0.504 OA
ATOM     20  H   UNL     1      20.668   4.807 106.336  1.00  0.00     0.293 HD
ENDBRANCH  16  19
ENDBRANCH   1  11
BRANCH  10  21
ATOM     21  O   UNL     1      22.259   0.750 103.056  1.00  0.00    -0.500 OA
ATOM     22  H   UNL     1      22.034  -0.234 102.980  1.00  0.00     0.294 HD
ENDBRANCH  10  21
BRANCH   5  23
ATOM     23  O   UNL     1      29.847   2.375 102.923  1.00  0.00    -0.507 OA
ATOM     24  H   UNL     1      30.671   1.786 102.875  1.00  0.00     0.293 HD
ENDBRANCH   5  23
BRANCH   7  25
ATOM     25  O   UNL     1      26.981  -1.496 102.840  1.00  0.00    -0.507 OA
ATOM     26  H   UNL     1      26.780  -2.078 103.639  1.00  0.00     0.293 HD
ENDBRANCH   7  25
TORSDOF 6
ENDMDL
MODEL 4
REMARK VINA RESULT:    -5.991      3.046      3.783
REMARK INTER + INTRA:          -7.569
REMARK INTER:                  -7.283
REMARK INTRA:                  -0.286
REMARK UNBOUND:                -0.353
REMARK SMILES Oc1cc(O)c2cc(O)c(-c3ccc(O)c(O)c3)[o+]c2c1.[Cl-]
REMARK SMILES IDX 10 1 19 2 20 3 21 4 2 5 3 6 4 7 6 8 7 9 8 10 11 11 12 12
REMARK SMILES IDX 13 13 14 14 18 15 16 16 15 17 17 19 9 21 1 23 5 25
REMARK H PARENT 15 18 17 20 9 22 1 24 5 26
REMARK Flexibility Score: inf
ROOT
ATOM      1  C   UNL     1      23.864   2.605 102.994  1.00  0.00     0.402 A 
ATOM      2  O   UNL     1      25.139   2.984 102.984  1.00  0.00    -0.202 OA
ATOM      3  C   UNL     1      26.155   2.130 102.908  1.00  0.00     0.368 A 
ATOM      4  C   UNL     1      27.461   2.626 102.901  1.00  0.00     0.162 A 
ATOM      5  C   UNL     1      28.546   1.753 102.819  1.00  0.00     0.128 A 
ATOM      6  C   UNL     1      28.326   0.374 102.742  1.00  0.00     0.093 A 
ATOM      7  C   UNL     1      27.027  -0.149 102.748  1.00  0.00     0.136 A 
ATOM      8  C   UNL     1      25.921   0.736 102.834  1.00  0.00     0.125 A 
ATOM      9  C   UNL     1      24.585   0.302 102.859  1.00  0.00     0.078 A 
ATOM     10  C   UNL     1      23.546   1.234 102.950  1.00  0.00     0.223 A 
ENDROOT
BRANCH   1  11
ATOM     11  C   UNL     1      22.821   3.654 103.072  1.00  0.00     0.087 A 
ATOM     12  C   UNL     1      22.113   3.895 104.262  1.00  0.00     0.022 A 
ATOM     13  C   UNL     1      21.117   4.874 104.305  1.00  0.00     0.051 A 
ATOM     14  C   UNL     1      20.806   5.617 103.158  1.00  0.00     0.157 A 
ATOM     15  C   UNL     1      22.492   4.386 101.920  1.00  0.00     0.068 A 
ATOM     16  C   UNL     1      21.495   5.368 101.959  1.00  0.00     0.158 A 
BRANCH  14  17
ATOM     17  O   UNL     1      19.814   6.595 103.204  1.00  0.00    -0.504 OA
ATOM     18  H   UNL     1      18.832   6.359 103.110  1.00  0.00     0.293 HD
ENDBRANCH  14  17
BRANCH  16  19
ATOM     19  O   UNL     1      21.205   6.085 100.799  1.00  0.00    -0.504 OA
ATOM     20  H   UNL     1      20.695   6.960 100.821  1.00  0.00     0.293 HD
ENDBRANCH  16  19
ENDBRANCH   1  11
BRANCH  10  21
ATOM     21  O   UNL     1      22.223   0.801 103.025  1.00  0.00    -0.500 OA
ATOM     22  H   UNL     1      21.979  -0.181 102.966  1.00  0.00     0.294 HD
ENDBRANCH  10  21
BRANCH   5  23
ATOM     23  O   UNL     1      29.841   2.267 102.813  1.00  0.00    -0.507 OA
ATOM     24  H   UNL     1      30.137   2.968 103.482  1.00  0.00     0.293 HD
ENDBRANCH   5  23
BRANCH   7  25
ATOM     25  O   UNL     1      26.891  -1.538 102.665  1.00  0.00    -0.507 OA
ATOM     26  H   UNL     1      27.662  -2.182 102.575  1.00  0.00     0.293 HD
ENDBRANCH   7  25
TORSDOF 6
ENDMDL
MODEL 5
REMARK VINA RESULT:    -5.966      2.196      3.066
REMARK INTER + INTRA:          -7.540
REMARK INTER:                  -7.336
REMARK INTRA:                  -0.204
REMARK UNBOUND:                -0.353
REMARK SMILES Oc1cc(O)c2cc(O)c(-c3ccc(O)c(O)c3)[o+]c2c1.[Cl-]
REMARK SMILES IDX 10 1 19 2 20 3 21 4 2 5 3 6 4 7 6 8 7 9 8 10 11 11 12 12
REMARK SMILES IDX 13 13 14 14 18 15 16 16 15 17 17 19 9 21 1 23 5 25
REMARK H PARENT 15 18 17 20 9 22 1 24 5 26
REMARK Flexibility Score: inf
ROOT
ATOM      1  C   UNL     1      23.912   2.614 102.973  1.00  0.00     0.402 A 
ATOM      2  O   UNL     1      23.557   1.332 102.972  1.00  0.00    -0.202 OA
ATOM      3  C   UNL     1      24.432   0.332 102.960  1.00  0.00     0.368 A 
ATOM      4  C   UNL     1      23.962  -0.983 102.962  1.00  0.00     0.162 A 
ATOM      5  C   UNL     1      24.858  -2.053 102.953  1.00  0.00     0.128 A 
ATOM      6  C   UNL     1      26.235  -1.807 102.943  1.00  0.00     0.093 A 
ATOM      7  C   UNL     1      26.732  -0.498 102.940  1.00  0.00     0.136 A 
ATOM      8  C   UNL     1      25.824   0.592 102.946  1.00  0.00     0.125 A 
ATOM      9  C   UNL     1      26.231   1.936 102.931  1.00  0.00     0.078 A 
ATOM     10  C   UNL     1      25.276   2.958 102.934  1.00  0.00     0.223 A 
ENDROOT
BRANCH   1  11
ATOM     11  C   UNL     1      22.841   3.638 102.997  1.00  0.00     0.087 A 
ATOM     12  C   UNL     1      22.633   4.505 101.910  1.00  0.00     0.022 A 
ATOM     13  C   UNL     1      21.632   5.478 101.965  1.00  0.00     0.051 A 
ATOM     14  C   UNL     1      20.833   5.607 103.110  1.00  0.00     0.157 A 
ATOM     15  C   UNL     1      22.052   3.784 104.150  1.00  0.00     0.068 A 
ATOM     16  C   UNL     1      21.048   4.758 104.209  1.00  0.00     0.158 A 
BRANCH  14  17
ATOM     17  O   UNL     1      19.834   6.578 103.161  1.00  0.00    -0.504 OA
ATOM     18  H   UNL     1      18.878   6.342 103.404  1.00  0.00     0.293 HD
ENDBRANCH  14  17
BRANCH  16  19
ATOM     19  O   UNL     1      20.276   4.866 105.364  1.00  0.00    -0.504 OA
ATOM     20  H   UNL     1      19.285   4.657 105.371  1.00  0.00     0.293 HD
ENDBRANCH  16  19
ENDBRANCH   1  11
BRANCH  10  21
ATOM     21  O   UNL     1      25.679   4.292 102.869  1.00  0.00    -0.500 OA
ATOM     22  H   UNL     1      26.408   4.598 102.236  1.00  0.00     0.294 HD
ENDBRANCH  10  21
BRANCH   5  23
ATOM     23  O   UNL     1      24.369  -3.357 102.956  1.00  0.00    -0.507 OA
ATOM     24  H   UNL     1      23.492  -3.596 102.510  1.00  0.00     0.293 HD
ENDBRANCH   5  23
BRANCH   7  25
ATOM     25  O   UNL     1      28.121  -0.337 102.933  1.00  0.00    -0.507 OA
ATOM     26  H   UNL     1      28.630   0.193 102.241  1.00  0.00     0.293 HD
ENDBRANCH   7  25
TORSDOF 6
ENDMDL
MODEL 6
REMARK VINA RESULT:    -5.623      6.009      7.300
REMARK INTER + INTRA:          -7.126
REMARK INTER:                  -6.773
REMARK INTRA:                  -0.353
REMARK UNBOUND:                -0.353
REMARK SMILES Oc1cc(O)c2cc(O)c(-c3ccc(O)c(O)c3)[o+]c2c1.[Cl-]
REMARK SMILES IDX 10 1 19 2 20 3 21 4 2 5 3 6 4 7 6 8 7 9 8 10 11 11 12 12
REMARK SMILES IDX 13 13 14 14 18 15 16 16 15 17 17 19 9 21 1 23 5 25
REMARK H PARENT 15 18 17 20 9 22 1 24 5 26
REMARK Flexibility Score: inf
ROOT
ATOM      1  C   UNL     1      24.265  -4.771 101.408  1.00  0.00     0.402 A 
ATOM      2  O   UNL     1      24.678  -4.829 102.672  1.00  0.00    -0.202 OA
ATOM      3  C   UNL     1      23.948  -5.345 103.655  1.00  0.00     0.368 A 
ATOM      4  C   UNL     1      24.469  -5.364 104.951  1.00  0.00     0.162 A 
ATOM      5  C   UNL     1      23.726  -5.903 106.002  1.00  0.00     0.128 A 
ATOM      6  C   UNL     1      22.454  -6.429 105.758  1.00  0.00     0.093 A 
ATOM      7  C   UNL     1      21.908  -6.423 104.468  1.00  0.00     0.136 A 
ATOM      8  C   UNL     1      22.659  -5.873 103.397  1.00  0.00     0.125 A 
ATOM      9  C   UNL     1      22.189  -5.812 102.075  1.00  0.00     0.078 A 
ATOM     10  C   UNL     1      22.985  -5.250 101.072  1.00  0.00     0.223 A 
ENDROOT
BRANCH   1  11
ATOM     11  C   UNL     1      25.176  -4.179 100.401  1.00  0.00     0.087 A 
ATOM     12  C   UNL     1      26.071  -4.976  99.666  1.00  0.00     0.022 A 
ATOM     13  C   UNL     1      26.937  -4.392  98.738  1.00  0.00     0.051 A 
ATOM     14  C   UNL     1      26.929  -3.005  98.538  1.00  0.00     0.157 A 
ATOM     15  C   UNL     1      25.186  -2.788 100.212  1.00  0.00     0.068 A 
ATOM     16  C   UNL     1      26.051  -2.199  99.282  1.00  0.00     0.158 A 
BRANCH  14  17
ATOM     17  O   UNL     1      27.793  -2.426  97.609  1.00  0.00    -0.504 OA
ATOM     18  H   UNL     1      28.708  -2.819  97.419  1.00  0.00     0.293 HD
ENDBRANCH  14  17
BRANCH  16  19
ATOM     19  O   UNL     1      26.024  -0.816  99.112  1.00  0.00    -0.504 OA
ATOM     20  H   UNL     1      25.900  -0.388  98.204  1.00  0.00     0.293 HD
ENDBRANCH  16  19
ENDBRANCH   1  11
BRANCH  10  21
ATOM     21  O   UNL     1      22.498  -5.145  99.769  1.00  0.00    -0.500 OA
ATOM     22  H   UNL     1      22.173  -4.263  99.392  1.00  0.00     0.294 HD
ENDBRANCH  10  21
BRANCH   5  23
ATOM     23  O   UNL     1      24.263  -5.912 107.288  1.00  0.00    -0.507 OA
ATOM     24  H   UNL     1      24.497  -6.778 107.759  1.00  0.00     0.293 HD
ENDBRANCH   5  23
BRANCH   7  25
ATOM     25  O   UNL     1      20.632  -6.971 104.305  1.00  0.00    -0.507 OA
ATOM     26  H   UNL     1      20.361  -7.564 103.535  1.00  0.00     0.293 HD
ENDBRANCH   7  25
TORSDOF 6
ENDMDL
MODEL 7
REMARK VINA RESULT:    -5.556      6.631      8.217
REMARK INTER + INTRA:          -7.046
REMARK INTER:                  -6.827
REMARK INTRA:                  -0.219
REMARK UNBOUND:                -0.353
REMARK SMILES Oc1cc(O)c2cc(O)c(-c3ccc(O)c(O)c3)[o+]c2c1.[Cl-]
REMARK SMILES IDX 10 1 19 2 20 3 21 4 2 5 3 6 4 7 6 8 7 9 8 10 11 11 12 12
REMARK SMILES IDX 13 13 14 14 18 15 16 16 15 17 17 19 9 21 1 23 5 25
REMARK H PARENT 15 18 17 20 9 22 1 24 5 26
REMARK Flexibility Score: inf
ROOT
ATOM      1  C   UNL     1      29.427   2.305 103.736  1.00  0.00     0.402 A 
ATOM      2  O   UNL     1      29.021   1.851 102.553  1.00  0.00    -0.202 OA
ATOM      3  C   UNL     1      28.007   1.005 102.405  1.00  0.00     0.368 A 
ATOM      4  C   UNL     1      27.653   0.587 101.121  1.00  0.00     0.162 A 
ATOM      5  C   UNL     1      26.591  -0.299 100.935  1.00  0.00     0.128 A 
ATOM      6  C   UNL     1      25.875  -0.770 102.041  1.00  0.00     0.093 A 
ATOM      7  C   UNL     1      26.210  -0.366 103.339  1.00  0.00     0.136 A 
ATOM      8  C   UNL     1      27.291   0.532 103.532  1.00  0.00     0.125 A 
ATOM      9  C   UNL     1      27.706   0.981 104.797  1.00  0.00     0.078 A 
ATOM     10  C   UNL     1      28.786   1.864 104.909  1.00  0.00     0.223 A 
ENDROOT
BRANCH   1  11
ATOM     11  C   UNL     1      30.565   3.254 103.770  1.00  0.00     0.087 A 
ATOM     12  C   UNL     1      30.409   4.567 104.247  1.00  0.00     0.022 A 
ATOM     13  C   UNL     1      31.491   5.451 104.248  1.00  0.00     0.051 A 
ATOM     14  C   UNL     1      32.739   5.041 103.759  1.00  0.00     0.157 A 
ATOM     15  C   UNL     1      31.812   2.854 103.263  1.00  0.00     0.068 A 
ATOM     16  C   UNL     1      32.898   3.737 103.261  1.00  0.00     0.158 A 
BRANCH  14  17
ATOM     17  O   UNL     1      33.818   5.925 103.763  1.00  0.00    -0.504 OA
ATOM     18  H   UNL     1      33.686   6.922 103.637  1.00  0.00     0.293 HD
ENDBRANCH  14  17
BRANCH  16  19
ATOM     19  O   UNL     1      34.125   3.301 102.762  1.00  0.00    -0.504 OA
ATOM     20  H   UNL     1      34.225   2.938 101.823  1.00  0.00     0.293 HD
ENDBRANCH  16  19
ENDBRANCH   1  11
BRANCH  10  21
ATOM     21  O   UNL     1      29.229   2.270 106.167  1.00  0.00    -0.500 OA
ATOM     22  H   UNL     1      28.631   2.223 106.983  1.00  0.00     0.294 HD
ENDBRANCH  10  21
BRANCH   5  23
ATOM     23  O   UNL     1      26.253  -0.704  99.646  1.00  0.00    -0.507 OA
ATOM     24  H   UNL     1      26.686  -0.291  98.829  1.00  0.00     0.293 HD
ENDBRANCH   5  23
BRANCH   7  25
ATOM     25  O   UNL     1      25.444  -0.878 104.391  1.00  0.00    -0.507 OA
ATOM     26  H   UNL     1      25.670  -1.717 104.904  1.00  0.00     0.293 HD
ENDBRANCH   7  25
TORSDOF 6
ENDMDL
MODEL 8
REMARK VINA RESULT:    -5.541     10.004     11.169
REMARK INTER + INTRA:          -7.028
REMARK INTER:                  -6.991
REMARK INTRA:                  -0.037
REMARK UNBOUND:                -0.353
REMARK SMILES Oc1cc(O)c2cc(O)c(-c3ccc(O)c(O)c3)[o+]c2c1.[Cl-]
REMARK SMILES IDX 10 1 19 2 20 3 21 4 2 5 3 6 4 7 6 8 7 9 8 10 11 11 12 12
REMARK SMILES IDX 13 13 14 14 18 15 16 16 15 17 17 19 9 21 1 23 5 25
REMARK H PARENT 15 18 17 20 9 22 1 24 5 26
REMARK Flexibility Score: inf
ROOT
ATOM      1  C   UNL     1      32.729   2.962 102.494  1.00  0.00     0.402 A 
ATOM      2  O   UNL     1      32.137   3.486 103.564  1.00  0.00    -0.202 OA
ATOM      3  C   UNL     1      32.289   3.003 104.792  1.00  0.00     0.368 A 
ATOM      4  C   UNL     1      31.628   3.624 105.854  1.00  0.00     0.162 A 
ATOM      5  C   UNL     1      31.772   3.141 107.155  1.00  0.00     0.128 A 
ATOM      6  C   UNL     1      32.584   2.028 107.398  1.00  0.00     0.093 A 
ATOM      7  C   UNL     1      33.258   1.387 106.352  1.00  0.00     0.136 A 
ATOM      8  C   UNL     1      33.112   1.874 105.027  1.00  0.00     0.125 A 
ATOM      9  C   UNL     1      33.739   1.288 103.915  1.00  0.00     0.078 A 
ATOM     10  C   UNL     1      33.543   1.822 102.637  1.00  0.00     0.223 A 
ENDROOT
BRANCH   1  11
ATOM     11  C   UNL     1      32.488   3.597 101.178  1.00  0.00     0.087 A 
ATOM     12  C   UNL     1      32.070   2.844 100.067  1.00  0.00     0.022 A 
ATOM     13  C   UNL     1      31.871   3.462  98.829  1.00  0.00     0.051 A 
ATOM     14  C   UNL     1      32.099   4.837  98.680  1.00  0.00     0.157 A 
ATOM     15  C   UNL     1      32.734   4.971 101.019  1.00  0.00     0.068 A 
ATOM     16  C   UNL     1      32.536   5.594  99.781  1.00  0.00     0.158 A 
BRANCH  14  17
ATOM     17  O   UNL     1      31.898   5.452  97.445  1.00  0.00    -0.504 OA
ATOM     18  H   UNL     1      31.012   5.381  96.956  1.00  0.00     0.293 HD
ENDBRANCH  14  17
BRANCH  16  19
ATOM     19  O   UNL     1      32.778   6.961  99.664  1.00  0.00    -0.504 OA
ATOM     20  H   UNL     1      32.846   7.567 100.472  1.00  0.00     0.293 HD
ENDBRANCH  16  19
ENDBRANCH   1  11
BRANCH  10  21
ATOM     21  O   UNL     1      34.125   1.211 101.527  1.00  0.00    -0.500 OA
ATOM     22  H   UNL     1      34.551   0.294 101.586  1.00  0.00     0.294 HD
ENDBRANCH  10  21
BRANCH   5  23
ATOM     23  O   UNL     1      31.104   3.774 108.200  1.00  0.00    -0.507 OA
ATOM     24  H   UNL     1      30.201   3.450 108.527  1.00  0.00     0.293 HD
ENDBRANCH   5  23
BRANCH   7  25
ATOM     25  O   UNL     1      34.054   0.284 106.677  1.00  0.00    -0.507 OA
ATOM     26  H   UNL     1      35.060   0.268 106.611  1.00  0.00     0.293 HD
ENDBRANCH   7  25
TORSDOF 6
ENDMDL
MODEL 9
REMARK VINA RESULT:    -5.360      4.391      6.699
REMARK INTER + INTRA:          -6.809
REMARK INTER:                  -6.457
REMARK INTRA:                  -0.352
REMARK UNBOUND:                -0.353
REMARK SMILES Oc1cc(O)c2cc(O)c(-c3ccc(O)c(O)c3)[o+]c2c1.[Cl-]
REMARK SMILES IDX 10 1 19 2 20 3 21 4 2 5 3 6 4 7 6 8 7 9 8 10 11 11 12 12
REMARK SMILES IDX 13 13 14 14 18 15 16 16 15 17 17 19 9 21 1 23 5 25
REMARK H PARENT 15 18 17 20 9 22 1 24 5 26
REMARK Flexibility Score: inf
ROOT
ATOM      1  C   UNL     1      24.187  -2.418 101.651  1.00  0.00     0.402 A 
ATOM      2  O   UNL     1      24.721  -2.329 102.867  1.00  0.00    -0.202 OA
ATOM      3  C   UNL     1      25.558  -1.362 103.228  1.00  0.00     0.368 A 
ATOM      4  C   UNL     1      26.064  -1.352 104.530  1.00  0.00     0.162 A 
ATOM      5  C   UNL     1      26.942  -0.347 104.937  1.00  0.00     0.128 A 
ATOM      6  C   UNL     1      27.318   0.657 104.038  1.00  0.00     0.093 A 
ATOM      7  C   UNL     1      26.825   0.669 102.727  1.00  0.00     0.136 A 
ATOM      8  C   UNL     1      25.933  -0.352 102.308  1.00  0.00     0.125 A 
ATOM      9  C   UNL     1      25.399  -0.427 101.011  1.00  0.00     0.078 A 
ATOM     10  C   UNL     1      24.529  -1.468 100.670  1.00  0.00     0.223 A 
ENDROOT
BRANCH   1  11
ATOM     11  C   UNL     1      23.258  -3.538 101.374  1.00  0.00     0.087 A 
ATOM     12  C   UNL     1      21.866  -3.376 101.474  1.00  0.00     0.022 A 
ATOM     13  C   UNL     1      21.010  -4.453 101.230  1.00  0.00     0.051 A 
ATOM     14  C   UNL     1      21.533  -5.710 100.896  1.00  0.00     0.157 A 
ATOM     15  C   UNL     1      23.778  -4.804 101.059  1.00  0.00     0.068 A 
ATOM     16  C   UNL     1      22.925  -5.885 100.813  1.00  0.00     0.158 A 
BRANCH  14  17
ATOM     17  O   UNL     1      20.677  -6.783 100.651  1.00  0.00    -0.504 OA
ATOM     18  H   UNL     1      20.999  -7.621 100.179  1.00  0.00     0.293 HD
ENDBRANCH  14  17
BRANCH  16  19
ATOM     19  O   UNL     1      23.476  -7.124 100.490  1.00  0.00    -0.504 OA
ATOM     20  H   UNL     1      24.184  -7.228  99.773  1.00  0.00     0.293 HD
ENDBRANCH  16  19
ENDBRANCH   1  11
BRANCH  10  21
ATOM     21  O   UNL     1      24.039  -1.570  99.369  1.00  0.00    -0.500 OA
ATOM     22  H   UNL     1      23.073  -1.362  99.146  1.00  0.00     0.294 HD
ENDBRANCH  10  21
BRANCH   5  23
ATOM     23  O   UNL     1      27.436  -0.354 106.240  1.00  0.00    -0.507 OA
ATOM     24  H   UNL     1      26.822  -0.453 107.039  1.00  0.00     0.293 HD
ENDBRANCH   5  23
BRANCH   7  25
ATOM     25  O   UNL     1      27.245   1.708 101.891  1.00  0.00    -0.507 OA
ATOM     26  H   UNL     1      26.787   2.605 101.822  1.00  0.00     0.293 HD
ENDBRANCH   7  25
TORSDOF 6
ENDMDL
