MODEL 1
REMARK VINA RESULT:    -7.253      0.000      0.000
REMARK INTER + INTRA:          -9.265
REMARK INTER:                  -8.949
REMARK INTRA:                  -0.315
REMARK UNBOUND:                -0.315
REMARK SMILES Oc1cc(O)c2cc(O)c(-c3cc(O)c(O)c(O)c3)[o+]c2c1
REMARK SMILES IDX 10 1 20 2 21 3 22 4 2 5 3 6 4 7 6 8 7 9 8 10 11 11 12 12
REMARK SMILES IDX 13 13 19 14 15 15 17 16 14 17 16 19 18 21 9 23 1 25 5 27
REMARK H PARENT 14 18 16 20 18 22 9 24 1 26 5 28
REMARK Flexibility Score: inf
ROOT
ATOM      1  C   UNL     1      49.337  11.824   7.979  1.00  0.00     0.402 A 
ATOM      2  O   UNL     1      49.238  11.494   6.694  1.00  0.00    -0.202 OA
ATOM      3  C   UNL     1      50.186  11.754   5.799  1.00  0.00     0.368 A 
ATOM      4  C   UNL     1      49.992  11.365   4.471  1.00  0.00     0.162 A 
ATOM      5  C   UNL     1      50.970  11.622   3.510  1.00  0.00     0.128 A 
ATOM      6  C   UNL     1      52.154  12.270   3.878  1.00  0.00     0.093 A 
ATOM      7  C   UNL     1      52.373  12.669   5.203  1.00  0.00     0.136 A 
ATOM      8  C   UNL     1      51.379  12.413   6.182  1.00  0.00     0.125 A 
ATOM      9  C   UNL     1      51.506  12.788   7.530  1.00  0.00     0.078 A 
ATOM     10  C   UNL     1      50.481  12.505   8.436  1.00  0.00     0.223 A 
ENDROOT
BRANCH   1  11
ATOM     11  C   UNL     1      48.217  11.472   8.881  1.00  0.00     0.091 A 
ATOM     12  C   UNL     1      48.377  10.431   9.805  1.00  0.00     0.068 A 
ATOM     13  C   UNL     1      47.344  10.089  10.682  1.00  0.00     0.162 A 
ATOM     14  C   UNL     1      47.015  12.197   8.872  1.00  0.00     0.068 A 
ATOM     15  C   UNL     1      46.130  10.800  10.658  1.00  0.00     0.200 A 
ATOM     16  C   UNL     1      45.971  11.871   9.746  1.00  0.00     0.162 A 
BRANCH  13  17
ATOM     17  O   UNL     1      47.543   9.034  11.573  1.00  0.00    -0.504 OA
ATOM     18  H   UNL     1      46.815   8.364  11.790  1.00  0.00     0.293 HD
ENDBRANCH  13  17
BRANCH  15  19
ATOM     19  O   UNL     1      45.119  10.419  11.545  1.00  0.00    -0.502 OA
ATOM     20  H   UNL     1      44.924   9.464  11.807  1.00  0.00     0.293 HD
ENDBRANCH  15  19
BRANCH  16  21
ATOM     21  O   UNL     1      44.805  12.637   9.677  1.00  0.00    -0.504 OA
ATOM     22  H   UNL     1      44.793  13.644   9.589  1.00  0.00     0.293 HD
ENDBRANCH  16  21
ENDBRANCH   1  11
BRANCH  10  23
ATOM     23  O   UNL     1      50.585  12.921   9.763  1.00  0.00    -0.500 OA
ATOM     24  H   UNL     1      51.007  12.335  10.473  1.00  0.00     0.294 HD
ENDBRANCH  10  23
BRANCH   5  25
ATOM     25  O   UNL     1      50.757  11.227   2.192  1.00  0.00    -0.507 OA
ATOM     26  H   UNL     1      51.513  11.204   1.517  1.00  0.00     0.293 HD
ENDBRANCH   5  25
BRANCH   7  27
ATOM     27  O   UNL     1      53.583  13.308   5.491  1.00  0.00    -0.507 OA
ATOM     28  H   UNL     1      53.723  14.307   5.456  1.00  0.00     0.293 HD
ENDBRANCH   7  27
TORSDOF 7
ENDMDL
MODEL 2
REMARK VINA RESULT:    -7.251      0.113      1.809
REMARK INTER + INTRA:          -9.262
REMARK INTER:                  -8.917
REMARK INTRA:                  -0.345
REMARK UNBOUND:                -0.315
REMARK SMILES Oc1cc(O)c2cc(O)c(-c3cc(O)c(O)c(O)c3)[o+]c2c1
REMARK SMILES IDX 10 1 20 2 21 3 22 4 2 5 3 6 4 7 6 8 7 9 8 10 11 11 12 12
REMARK SMILES IDX 13 13 19 14 15 15 17 16 14 17 16 19 18 21 9 23 1 25 5 27
REMARK H PARENT 14 18 16 20 18 22 9 24 1 26 5 28
REMARK Flexibility Score: inf
ROOT
ATOM      1  C   UNL     1      49.331  11.805   8.026  1.00  0.00     0.402 A 
ATOM      2  O   UNL     1      49.188  11.453   6.750  1.00  0.00    -0.202 OA
ATOM      3  C   UNL     1      50.104  11.701   5.819  1.00  0.00     0.368 A 
ATOM      4  C   UNL     1      49.866  11.290   4.505  1.00  0.00     0.162 A 
ATOM      5  C   UNL     1      50.809  11.534   3.507  1.00  0.00     0.128 A 
ATOM      6  C   UNL     1      52.003  12.193   3.824  1.00  0.00     0.093 A 
ATOM      7  C   UNL     1      52.266  12.614   5.133  1.00  0.00     0.136 A 
ATOM      8  C   UNL     1      51.307  12.371   6.150  1.00  0.00     0.125 A 
ATOM      9  C   UNL     1      51.479  12.769   7.486  1.00  0.00     0.078 A 
ATOM     10  C   UNL     1      50.486  12.497   8.432  1.00  0.00     0.223 A 
ENDROOT
BRANCH   1  11
ATOM     11  C   UNL     1      48.244  11.464   8.972  1.00  0.00     0.091 A 
ATOM     12  C   UNL     1      47.038  12.176   8.922  1.00  0.00     0.068 A 
ATOM     13  C   UNL     1      45.988  11.864   9.790  1.00  0.00     0.162 A 
ATOM     14  C   UNL     1      48.371  10.402   9.881  1.00  0.00     0.068 A 
ATOM     15  C   UNL     1      46.123  10.815  10.717  1.00  0.00     0.200 A 
ATOM     16  C   UNL     1      47.328  10.073  10.755  1.00  0.00     0.162 A 
BRANCH  13  17
ATOM     17  O   UNL     1      44.813  12.612   9.715  1.00  0.00    -0.504 OA
ATOM     18  H   UNL     1      43.897  12.197   9.841  1.00  0.00     0.293 HD
ENDBRANCH  13  17
BRANCH  15  19
ATOM     19  O   UNL     1      45.052  10.542  11.573  1.00  0.00    -0.502 OA
ATOM     20  H   UNL     1      44.234  10.014  11.307  1.00  0.00     0.293 HD
ENDBRANCH  15  19
BRANCH  16  21
ATOM     21  O   UNL     1      47.530   9.004  11.631  1.00  0.00    -0.504 OA
ATOM     22  H   UNL     1      47.316   8.042  11.410  1.00  0.00     0.293 HD
ENDBRANCH  16  21
ENDBRANCH   1  11
BRANCH  10  23
ATOM     23  O   UNL     1      50.634  12.936   9.747  1.00  0.00    -0.500 OA
ATOM     24  H   UNL     1      51.160  13.772   9.974  1.00  0.00     0.294 HD
ENDBRANCH  10  23
BRANCH   5  25
ATOM     25  O   UNL     1      50.553  11.117   2.204  1.00  0.00    -0.507 OA
ATOM     26  H   UNL     1      50.413  10.139   1.978  1.00  0.00     0.293 HD
ENDBRANCH   5  25
BRANCH   7  27
ATOM     27  O   UNL     1      53.482  13.262   5.369  1.00  0.00    -0.507 OA
ATOM     28  H   UNL     1      54.338  13.071   4.868  1.00  0.00     0.293 HD
ENDBRANCH   7  27
TORSDOF 7
ENDMDL
MODEL 3
REMARK VINA RESULT:    -6.936      1.006      2.543
REMARK INTER + INTRA:          -8.874
REMARK INTER:                  -8.491
REMARK INTRA:                  -0.383
REMARK UNBOUND:                -0.315
REMARK SMILES Oc1cc(O)c2cc(O)c(-c3cc(O)c(O)c(O)c3)[o+]c2c1
REMARK SMILES IDX 10 1 20 2 21 3 22 4 2 5 3 6 4 7 6 8 7 9 8 10 11 11 12 12
REMARK SMILES IDX 13 13 19 14 15 15 17 16 14 17 16 19 18 21 9 23 1 25 5 27
REMARK H PARENT 14 18 16 20 18 22 9 24 1 26 5 28
REMARK Flexibility Score: inf
ROOT
ATOM      1  C   UNL     1      48.809  11.233   7.249  1.00  0.00     0.402 A 
ATOM      2  O   UNL     1      49.850  12.049   7.394  1.00  0.00    -0.202 OA
ATOM      3  C   UNL     1      50.756  12.252   6.442  1.00  0.00     0.368 A 
ATOM      4  C   UNL     1      51.814  13.131   6.686  1.00  0.00     0.162 A 
ATOM      5  C   UNL     1      52.777  13.365   5.705  1.00  0.00     0.128 A 
ATOM      6  C   UNL     1      52.683  12.718   4.467  1.00  0.00     0.093 A 
ATOM      7  C   UNL     1      51.631  11.834   4.197  1.00  0.00     0.136 A 
ATOM      8  C   UNL     1      50.652  11.590   5.195  1.00  0.00     0.125 A 
ATOM      9  C   UNL     1      49.571  10.710   5.018  1.00  0.00     0.078 A 
ATOM     10  C   UNL     1      48.647  10.517   6.049  1.00  0.00     0.223 A 
ENDROOT
BRANCH   1  11
ATOM     11  C   UNL     1      47.863  11.098   8.380  1.00  0.00     0.091 A 
ATOM     12  C   UNL     1      48.157  10.210   9.423  1.00  0.00     0.068 A 
ATOM     13  C   UNL     1      47.292  10.076  10.512  1.00  0.00     0.162 A 
ATOM     14  C   UNL     1      46.703  11.884   8.461  1.00  0.00     0.068 A 
ATOM     15  C   UNL     1      46.117  10.846  10.583  1.00  0.00     0.200 A 
ATOM     16  C   UNL     1      45.827  11.766   9.547  1.00  0.00     0.162 A 
BRANCH  13  17
ATOM     17  O   UNL     1      47.619   9.166  11.519  1.00  0.00    -0.504 OA
ATOM     18  H   UNL     1      47.598   8.164  11.370  1.00  0.00     0.293 HD
ENDBRANCH  13  17
BRANCH  15  19
ATOM     19  O   UNL     1      45.275  10.675  11.685  1.00  0.00    -0.502 OA
ATOM     20  H   UNL     1      44.951   9.778  12.018  1.00  0.00     0.293 HD
ENDBRANCH  15  19
BRANCH  16  21
ATOM     21  O   UNL     1      44.693  12.582   9.557  1.00  0.00    -0.504 OA
ATOM     22  H   UNL     1      43.953  12.533   8.871  1.00  0.00     0.293 HD
ENDBRANCH  16  21
ENDBRANCH   1  11
BRANCH  10  23
ATOM     23  O   UNL     1      47.603   9.606   5.892  1.00  0.00    -0.500 OA
ATOM     24  H   UNL     1      46.636   9.874   6.038  1.00  0.00     0.294 HD
ENDBRANCH  10  23
BRANCH   5  25
ATOM     25  O   UNL     1      53.825  14.244   5.968  1.00  0.00    -0.507 OA
ATOM     26  H   UNL     1      53.840  15.181   5.581  1.00  0.00     0.293 HD
ENDBRANCH   5  25
BRANCH   7  27
ATOM     27  O   UNL     1      51.605  11.229   2.937  1.00  0.00    -0.507 OA
ATOM     28  H   UNL     1      50.898  11.398   2.237  1.00  0.00     0.293 HD
ENDBRANCH   7  27
TORSDOF 7
ENDMDL
MODEL 4
REMARK VINA RESULT:    -6.935      0.986      3.103
REMARK INTER + INTRA:          -8.872
REMARK INTER:                  -8.499
REMARK INTRA:                  -0.373
REMARK UNBOUND:                -0.315
REMARK SMILES Oc1cc(O)c2cc(O)c(-c3cc(O)c(O)c(O)c3)[o+]c2c1
REMARK SMILES IDX 10 1 20 2 21 3 22 4 2 5 3 6 4 7 6 8 7 9 8 10 11 11 12 12
REMARK SMILES IDX 13 13 19 14 15 15 17 16 14 17 16 19 18 21 9 23 1 25 5 27
REMARK H PARENT 14 18 16 20 18 22 9 24 1 26 5 28
REMARK Flexibility Score: inf
ROOT
ATOM      1  C   UNL     1      48.842  11.229   7.323  1.00  0.00     0.402 A 
ATOM      2  O   UNL     1      49.893  12.038   7.434  1.00  0.00    -0.202 OA
ATOM      3  C   UNL     1      50.764  12.241   6.451  1.00  0.00     0.368 A 
ATOM      4  C   UNL     1      51.835  13.114   6.662  1.00  0.00     0.162 A 
ATOM      5  C   UNL     1      52.764  13.349   5.648  1.00  0.00     0.128 A 
ATOM      6  C   UNL     1      52.621  12.710   4.411  1.00  0.00     0.093 A 
ATOM      7  C   UNL     1      51.556  11.832   4.175  1.00  0.00     0.136 A 
ATOM      8  C   UNL     1      50.612  11.587   5.205  1.00  0.00     0.125 A 
ATOM      9  C   UNL     1      49.521  10.714   5.062  1.00  0.00     0.078 A 
ATOM     10  C   UNL     1      48.633  10.520   6.125  1.00  0.00     0.223 A 
ENDROOT
BRANCH   1  11
ATOM     11  C   UNL     1      47.937  11.092   8.486  1.00  0.00     0.091 A 
ATOM     12  C   UNL     1      46.764  11.857   8.541  1.00  0.00     0.068 A 
ATOM     13  C   UNL     1      45.882  11.735   9.618  1.00  0.00     0.162 A 
ATOM     14  C   UNL     1      48.197  10.170   9.512  1.00  0.00     0.068 A 
ATOM     15  C   UNL     1      46.153  10.827  10.657  1.00  0.00     0.200 A 
ATOM     16  C   UNL     1      47.323  10.031  10.596  1.00  0.00     0.162 A 
BRANCH  13  17
ATOM     17  O   UNL     1      44.735  12.529   9.636  1.00  0.00    -0.504 OA
ATOM     18  H   UNL     1      44.633  13.318  10.263  1.00  0.00     0.293 HD
ENDBRANCH  13  17
BRANCH  15  19
ATOM     19  O   UNL     1      45.249  10.744  11.720  1.00  0.00    -0.502 OA
ATOM     20  H   UNL     1      44.246  10.766  11.614  1.00  0.00     0.293 HD
ENDBRANCH  15  19
BRANCH  16  21
ATOM     21  O   UNL     1      47.650   9.093  11.577  1.00  0.00    -0.504 OA
ATOM     22  H   UNL     1      46.970   8.578  12.118  1.00  0.00     0.293 HD
ENDBRANCH  16  21
ENDBRANCH   1  11
BRANCH  10  23
ATOM     23  O   UNL     1      47.579   9.616   6.001  1.00  0.00    -0.500 OA
ATOM     24  H   UNL     1      46.637   9.923   5.788  1.00  0.00     0.294 HD
ENDBRANCH  10  23
BRANCH   5  25
ATOM     25  O   UNL     1      53.825  14.221   5.878  1.00  0.00    -0.507 OA
ATOM     26  H   UNL     1      54.772  13.882   6.003  1.00  0.00     0.293 HD
ENDBRANCH   5  25
BRANCH   7  27
ATOM     27  O   UNL     1      51.481  11.235   2.913  1.00  0.00    -0.507 OA
ATOM     28  H   UNL     1      51.231  11.722   2.064  1.00  0.00     0.293 HD
ENDBRANCH   7  27
TORSDOF 7
ENDMDL
MODEL 5
REMARK VINA RESULT:    -6.911      1.414      7.287
REMARK INTER + INTRA:          -8.843
REMARK INTER:                  -8.492
REMARK INTRA:                  -0.351
REMARK UNBOUND:                -0.315
REMARK SMILES Oc1cc(O)c2cc(O)c(-c3cc(O)c(O)c(O)c3)[o+]c2c1
REMARK SMILES IDX 10 1 20 2 21 3 22 4 2 5 3 6 4 7 6 8 7 9 8 10 11 11 12 12
REMARK SMILES IDX 13 13 19 14 15 15 17 16 14 17 16 19 18 21 9 23 1 25 5 27
REMARK H PARENT 14 18 16 20 18 22 9 24 1 26 5 28
REMARK Flexibility Score: inf
ROOT
ATOM      1  C   UNL     1      49.505  11.987   7.653  1.00  0.00     0.402 A 
ATOM      2  O   UNL     1      48.783  13.001   8.124  1.00  0.00    -0.202 OA
ATOM      3  C   UNL     1      47.856  12.861   9.067  1.00  0.00     0.368 A 
ATOM      4  C   UNL     1      47.151  13.987   9.499  1.00  0.00     0.162 A 
ATOM      5  C   UNL     1      46.175  13.872  10.489  1.00  0.00     0.128 A 
ATOM      6  C   UNL     1      45.901  12.621  11.054  1.00  0.00     0.093 A 
ATOM      7  C   UNL     1      46.595  11.477  10.639  1.00  0.00     0.136 A 
ATOM      8  C   UNL     1      47.585  11.591   9.630  1.00  0.00     0.125 A 
ATOM      9  C   UNL     1      48.321  10.497   9.142  1.00  0.00     0.078 A 
ATOM     10  C   UNL     1      49.279  10.686   8.142  1.00  0.00     0.223 A 
ENDROOT
BRANCH   1  11
ATOM     11  C   UNL     1      50.515  12.271   6.609  1.00  0.00     0.091 A 
ATOM     12  C   UNL     1      50.199  12.041   5.263  1.00  0.00     0.068 A 
ATOM     13  C   UNL     1      51.125  12.318   4.255  1.00  0.00     0.162 A 
ATOM     14  C   UNL     1      51.765  12.822   6.931  1.00  0.00     0.068 A 
ATOM     15  C   UNL     1      52.387  12.849   4.578  1.00  0.00     0.200 A 
ATOM     16  C   UNL     1      52.704  13.109   5.934  1.00  0.00     0.162 A 
BRANCH  13  17
ATOM     17  O   UNL     1      50.771  12.058   2.931  1.00  0.00    -0.504 OA
ATOM     18  H   UNL     1      51.377  12.289   2.153  1.00  0.00     0.293 HD
ENDBRANCH  13  17
BRANCH  15  19
ATOM     19  O   UNL     1      53.288  13.103   3.540  1.00  0.00    -0.502 OA
ATOM     20  H   UNL     1      54.166  12.619   3.421  1.00  0.00     0.293 HD
ENDBRANCH  15  19
BRANCH  16  21
ATOM     21  O   UNL     1      53.926  13.655   6.332  1.00  0.00    -0.504 OA
ATOM     22  H   UNL     1      54.779  13.124   6.432  1.00  0.00     0.293 HD
ENDBRANCH  16  21
ENDBRANCH   1  11
BRANCH  10  23
ATOM     23  O   UNL     1      49.973   9.594   7.622  1.00  0.00    -0.500 OA
ATOM     24  H   UNL     1      50.043   8.719   8.127  1.00  0.00     0.294 HD
ENDBRANCH  10  23
BRANCH   5  25
ATOM     25  O   UNL     1      45.483  15.005  10.906  1.00  0.00    -0.507 OA
ATOM     26  H   UNL     1      44.849  15.497  10.287  1.00  0.00     0.293 HD
ENDBRANCH   5  25
BRANCH   7  27
ATOM     27  O   UNL     1      46.265  10.266  11.254  1.00  0.00    -0.507 OA
ATOM     28  H   UNL     1      46.847   9.791  11.930  1.00  0.00     0.293 HD
ENDBRANCH   7  27
TORSDOF 7
ENDMDL
MODEL 6
REMARK VINA RESULT:    -6.852      1.427      7.234
REMARK INTER + INTRA:          -8.769
REMARK INTER:                  -8.427
REMARK INTRA:                  -0.342
REMARK UNBOUND:                -0.315
REMARK SMILES Oc1cc(O)c2cc(O)c(-c3cc(O)c(O)c(O)c3)[o+]c2c1
REMARK SMILES IDX 10 1 20 2 21 3 22 4 2 5 3 6 4 7 6 8 7 9 8 10 11 11 12 12
REMARK SMILES IDX 13 13 19 14 15 15 17 16 14 17 16 19 18 21 9 23 1 25 5 27
REMARK H PARENT 14 18 16 20 18 22 9 24 1 26 5 28
REMARK Flexibility Score: inf
ROOT
ATOM      1  C   UNL     1      49.677  12.181   7.448  1.00  0.00     0.402 A 
ATOM      2  O   UNL     1      48.901  13.145   7.939  1.00  0.00    -0.202 OA
ATOM      3  C   UNL     1      47.992  12.937   8.886  1.00  0.00     0.368 A 
ATOM      4  C   UNL     1      47.226  14.014   9.341  1.00  0.00     0.162 A 
ATOM      5  C   UNL     1      46.266  13.827  10.336  1.00  0.00     0.128 A 
ATOM      6  C   UNL     1      46.071  12.554  10.884  1.00  0.00     0.093 A 
ATOM      7  C   UNL     1      46.827  11.459  10.447  1.00  0.00     0.136 A 
ATOM      8  C   UNL     1      47.801  11.645   9.432  1.00  0.00     0.125 A 
ATOM      9  C   UNL     1      48.594  10.604   8.923  1.00  0.00     0.078 A 
ATOM     10  C   UNL     1      49.532  10.863   7.919  1.00  0.00     0.223 A 
ENDROOT
BRANCH   1  11
ATOM     11  C   UNL     1      50.660  12.540   6.401  1.00  0.00     0.091 A 
ATOM     12  C   UNL     1      51.884  13.112   6.770  1.00  0.00     0.068 A 
ATOM     13  C   UNL     1      52.839  13.443   5.805  1.00  0.00     0.162 A 
ATOM     14  C   UNL     1      50.418  12.265   5.046  1.00  0.00     0.068 A 
ATOM     15  C   UNL     1      52.588  13.190   4.444  1.00  0.00     0.200 A 
ATOM     16  C   UNL     1      51.364  12.586   4.065  1.00  0.00     0.162 A 
BRANCH  13  17
ATOM     17  O   UNL     1      54.036  14.027   6.220  1.00  0.00    -0.504 OA
ATOM     18  H   UNL     1      54.938  13.704   5.891  1.00  0.00     0.293 HD
ENDBRANCH  13  17
BRANCH  15  19
ATOM     19  O   UNL     1      53.565  13.545   3.510  1.00  0.00    -0.502 OA
ATOM     20  H   UNL     1      53.365  13.936   2.601  1.00  0.00     0.293 HD
ENDBRANCH  15  19
BRANCH  16  21
ATOM     21  O   UNL     1      51.051  12.283   2.738  1.00  0.00    -0.504 OA
ATOM     22  H   UNL     1      50.882  11.349   2.395  1.00  0.00     0.293 HD
ENDBRANCH  16  21
ENDBRANCH   1  11
BRANCH  10  23
ATOM     23  O   UNL     1      50.284   9.821   7.377  1.00  0.00    -0.500 OA
ATOM     24  H   UNL     1      51.279   9.736   7.553  1.00  0.00     0.294 HD
ENDBRANCH  10  23
BRANCH   5  25
ATOM     25  O   UNL     1      45.513  14.912  10.775  1.00  0.00    -0.507 OA
ATOM     26  H   UNL     1      45.890  15.590  11.426  1.00  0.00     0.293 HD
ENDBRANCH   5  25
BRANCH   7  27
ATOM     27  O   UNL     1      46.574  10.221  11.046  1.00  0.00    -0.507 OA
ATOM     28  H   UNL     1      46.676   9.330  10.582  1.00  0.00     0.293 HD
ENDBRANCH   7  27
TORSDOF 7
ENDMDL
MODEL 7
REMARK VINA RESULT:    -6.547      2.582      8.316
REMARK INTER + INTRA:          -8.394
REMARK INTER:                  -8.065
REMARK INTRA:                  -0.329
REMARK UNBOUND:                -0.315
REMARK SMILES Oc1cc(O)c2cc(O)c(-c3cc(O)c(O)c(O)c3)[o+]c2c1
REMARK SMILES IDX 10 1 20 2 21 3 22 4 2 5 3 6 4 7 6 8 7 9 8 10 11 11 12 12
REMARK SMILES IDX 13 13 19 14 15 15 17 16 14 17 16 19 18 21 9 23 1 25 5 27
REMARK H PARENT 14 18 16 20 18 22 9 24 1 26 5 28
REMARK Flexibility Score: inf
ROOT
ATOM      1  C   UNL     1      51.955  12.891   4.869  1.00  0.00     0.402 A 
ATOM      2  O   UNL     1      51.350  13.620   5.804  1.00  0.00    -0.202 OA
ATOM      3  C   UNL     1      50.619  13.091   6.781  1.00  0.00     0.368 A 
ATOM      4  C   UNL     1      50.024  13.938   7.719  1.00  0.00     0.162 A 
ATOM      5  C   UNL     1      49.255  13.412   8.757  1.00  0.00     0.128 A 
ATOM      6  C   UNL     1      49.079  12.027   8.861  1.00  0.00     0.093 A 
ATOM      7  C   UNL     1      49.667  11.157   7.934  1.00  0.00     0.136 A 
ATOM      8  C   UNL     1      50.446  11.689   6.875  1.00  0.00     0.125 A 
ATOM      9  C   UNL     1      51.061  10.894   5.893  1.00  0.00     0.078 A 
ATOM     10  C   UNL     1      51.812  11.491   4.876  1.00  0.00     0.223 A 
ENDROOT
BRANCH   1  11
ATOM     11  C   UNL     1      52.749  13.596   3.837  1.00  0.00     0.091 A 
ATOM     12  C   UNL     1      52.204  13.792   2.561  1.00  0.00     0.068 A 
ATOM     13  C   UNL     1      52.923  14.470   1.574  1.00  0.00     0.162 A 
ATOM     14  C   UNL     1      54.017  14.126   4.125  1.00  0.00     0.068 A 
ATOM     15  C   UNL     1      54.203  14.981   1.854  1.00  0.00     0.200 A 
ATOM     16  C   UNL     1      54.750  14.812   3.149  1.00  0.00     0.162 A 
BRANCH  13  17
ATOM     17  O   UNL     1      52.345  14.626   0.313  1.00  0.00    -0.504 OA
ATOM     18  H   UNL     1      52.211  13.848  -0.321  1.00  0.00     0.293 HD
ENDBRANCH  13  17
BRANCH  15  19
ATOM     19  O   UNL     1      54.891  15.645   0.835  1.00  0.00    -0.502 OA
ATOM     20  H   UNL     1      54.450  16.225   0.136  1.00  0.00     0.293 HD
ENDBRANCH  15  19
BRANCH  16  21
ATOM     21  O   UNL     1      56.003  15.310   3.510  1.00  0.00    -0.504 OA
ATOM     22  H   UNL     1      56.603  15.838   2.892  1.00  0.00     0.293 HD
ENDBRANCH  16  21
ENDBRANCH   1  11
BRANCH  10  23
ATOM     23  O   UNL     1      52.380  10.707   3.873  1.00  0.00    -0.500 OA
ATOM     24  H   UNL     1      52.825  11.121   3.061  1.00  0.00     0.294 HD
ENDBRANCH  10  23
BRANCH   5  25
ATOM     25  O   UNL     1      48.669  14.273   9.681  1.00  0.00    -0.507 OA
ATOM     26  H   UNL     1      48.984  15.230   9.788  1.00  0.00     0.293 HD
ENDBRANCH   5  25
BRANCH   7  27
ATOM     27  O   UNL     1      49.447   9.787   8.108  1.00  0.00    -0.507 OA
ATOM     28  H   UNL     1      49.585   9.091   7.390  1.00  0.00     0.293 HD
ENDBRANCH   7  27
TORSDOF 7
ENDMDL
MODEL 8
REMARK VINA RESULT:    -6.536      2.850      4.748
REMARK INTER + INTRA:          -8.380
REMARK INTER:                  -8.056
REMARK INTRA:                  -0.324
REMARK UNBOUND:                -0.315
REMARK SMILES Oc1cc(O)c2cc(O)c(-c3cc(O)c(O)c(O)c3)[o+]c2c1
REMARK SMILES IDX 10 1 20 2 21 3 22 4 2 5 3 6 4 7 6 8 7 9 8 10 11 11 12 12
REMARK SMILES IDX 13 13 19 14 15 15 17 16 14 17 16 19 18 21 9 23 1 25 5 27
REMARK H PARENT 14 18 16 20 18 22 9 24 1 26 5 28
REMARK Flexibility Score: inf
ROOT
ATOM      1  C   UNL     1      52.365  13.456   4.847  1.00  0.00     0.402 A 
ATOM      2  O   UNL     1      51.928  13.347   3.595  1.00  0.00    -0.202 OA
ATOM      3  C   UNL     1      52.619  13.774   2.542  1.00  0.00     0.368 A 
ATOM      4  C   UNL     1      52.078  13.613   1.264  1.00  0.00     0.162 A 
ATOM      5  C   UNL     1      52.781  14.049   0.140  1.00  0.00     0.128 A 
ATOM      6  C   UNL     1      54.037  14.648   0.293  1.00  0.00     0.093 A 
ATOM      7  C   UNL     1      54.601  14.819   1.563  1.00  0.00     0.136 A 
ATOM      8  C   UNL     1      53.887  14.381   2.709  1.00  0.00     0.125 A 
ATOM      9  C   UNL     1      54.368  14.524   4.021  1.00  0.00     0.078 A 
ATOM     10  C   UNL     1      53.605  14.071   5.101  1.00  0.00     0.223 A 
ENDROOT
BRANCH   1  11
ATOM     11  C   UNL     1      51.508  12.934   5.935  1.00  0.00     0.091 A 
ATOM     12  C   UNL     1      51.481  11.556   6.191  1.00  0.00     0.068 A 
ATOM     13  C   UNL     1      50.695  11.037   7.224  1.00  0.00     0.162 A 
ATOM     14  C   UNL     1      50.764  13.794   6.757  1.00  0.00     0.068 A 
ATOM     15  C   UNL     1      49.931  11.897   8.034  1.00  0.00     0.200 A 
ATOM     16  C   UNL     1      49.974  13.292   7.799  1.00  0.00     0.162 A 
BRANCH  13  17
ATOM     17  O   UNL     1      50.688   9.657   7.430  1.00  0.00    -0.504 OA
ATOM     18  H   UNL     1      49.833   9.113   7.423  1.00  0.00     0.293 HD
ENDBRANCH  13  17
BRANCH  15  19
ATOM     19  O   UNL     1      49.152  11.335   9.049  1.00  0.00    -0.502 OA
ATOM     20  H   UNL     1      49.314  11.482  10.035  1.00  0.00     0.293 HD
ENDBRANCH  15  19
BRANCH  16  21
ATOM     21  O   UNL     1      49.262  14.211   8.573  1.00  0.00    -0.504 OA
ATOM     22  H   UNL     1      49.690  14.934   9.132  1.00  0.00     0.293 HD
ENDBRANCH  16  21
ENDBRANCH   1  11
BRANCH  10  23
ATOM     23  O   UNL     1      54.059  14.257   6.406  1.00  0.00    -0.500 OA
ATOM     24  H   UNL     1      55.047  14.337   6.619  1.00  0.00     0.294 HD
ENDBRANCH  10  23
BRANCH   5  25
ATOM     25  O   UNL     1      52.225  13.881  -1.125  1.00  0.00    -0.507 OA
ATOM     26  H   UNL     1      52.108  12.961  -1.535  1.00  0.00     0.293 HD
ENDBRANCH   5  25
BRANCH   7  27
ATOM     27  O   UNL     1      55.860  15.423   1.633  1.00  0.00    -0.507 OA
ATOM     28  H   UNL     1      56.457  15.408   2.447  1.00  0.00     0.293 HD
ENDBRANCH   7  27
TORSDOF 7
ENDMDL
MODEL 9
REMARK VINA RESULT:    -6.445      2.867      5.398
REMARK INTER + INTRA:          -8.268
REMARK INTER:                  -7.946
REMARK INTRA:                  -0.322
REMARK UNBOUND:                -0.315
REMARK SMILES Oc1cc(O)c2cc(O)c(-c3cc(O)c(O)c(O)c3)[o+]c2c1
REMARK SMILES IDX 10 1 20 2 21 3 22 4 2 5 3 6 4 7 6 8 7 9 8 10 11 11 12 12
REMARK SMILES IDX 13 13 19 14 15 15 17 16 14 17 16 19 18 21 9 23 1 25 5 27
REMARK H PARENT 14 18 16 20 18 22 9 24 1 26 5 28
REMARK Flexibility Score: inf
ROOT
ATOM      1  C   UNL     1      51.979  13.072   4.365  1.00  0.00     0.402 A 
ATOM      2  O   UNL     1      53.179  13.627   4.521  1.00  0.00    -0.202 OA
ATOM      3  C   UNL     1      53.887  14.129   3.514  1.00  0.00     0.368 A 
ATOM      4  C   UNL     1      55.137  14.695   3.777  1.00  0.00     0.162 A 
ATOM      5  C   UNL     1      55.901  15.231   2.741  1.00  0.00     0.128 A 
ATOM      6  C   UNL     1      55.412  15.205   1.430  1.00  0.00     0.093 A 
ATOM      7  C   UNL     1      54.162  14.645   1.140  1.00  0.00     0.136 A 
ATOM      8  C   UNL     1      53.384  14.094   2.191  1.00  0.00     0.125 A 
ATOM      9  C   UNL     1      52.126  13.500   1.992  1.00  0.00     0.078 A 
ATOM     10  C   UNL     1      51.419  12.975   3.078  1.00  0.00     0.223 A 
ENDROOT
BRANCH   1  11
ATOM     11  C   UNL     1      51.284  12.557   5.567  1.00  0.00     0.091 A 
ATOM     12  C   UNL     1      51.272  11.179   5.819  1.00  0.00     0.068 A 
ATOM     13  C   UNL     1      50.641  10.666   6.955  1.00  0.00     0.162 A 
ATOM     14  C   UNL     1      50.685  13.424   6.493  1.00  0.00     0.068 A 
ATOM     15  C   UNL     1      50.019  11.532   7.872  1.00  0.00     0.200 A 
ATOM     16  C   UNL     1      50.051  12.929   7.639  1.00  0.00     0.162 A 
BRANCH  13  17
ATOM     17  O   UNL     1      50.640   9.285   7.154  1.00  0.00    -0.504 OA
ATOM     18  H   UNL     1      51.321   8.674   6.718  1.00  0.00     0.293 HD
ENDBRANCH  13  17
BRANCH  15  19
ATOM     19  O   UNL     1      49.391  10.977   8.990  1.00  0.00    -0.502 OA
ATOM     20  H   UNL     1      49.879  10.654   9.813  1.00  0.00     0.293 HD
ENDBRANCH  15  19
BRANCH  16  21
ATOM     21  O   UNL     1      49.477  13.853   8.514  1.00  0.00    -0.504 OA
ATOM     22  H   UNL     1      49.952  14.673   8.865  1.00  0.00     0.293 HD
ENDBRANCH  16  21
ENDBRANCH   1  11
BRANCH  10  23
ATOM     23  O   UNL     1      50.194  12.341   2.874  1.00  0.00    -0.500 OA
ATOM     24  H   UNL     1      50.134  11.347   2.684  1.00  0.00     0.294 HD
ENDBRANCH  10  23
BRANCH   5  25
ATOM     25  O   UNL     1      57.144  15.790   3.024  1.00  0.00    -0.507 OA
ATOM     26  H   UNL     1      57.235  16.747   3.345  1.00  0.00     0.293 HD
ENDBRANCH   5  25
BRANCH   7  27
ATOM     27  O   UNL     1      53.743  14.660  -0.194  1.00  0.00    -0.507 OA
ATOM     28  H   UNL     1      54.096  14.042  -0.911  1.00  0.00     0.293 HD
ENDBRANCH   7  27
TORSDOF 7
ENDMDL
