MODEL 1
REMARK VINA RESULT:    -3.662      0.000      0.000
REMARK INTER + INTRA:          -8.893
REMARK INTER:                  -6.659
REMARK INTRA:                  -2.234
REMARK UNBOUND:                -2.234
REMARK SMILES CCCCCCCCCCCCCCCC(=O)[O-]
REMARK SMILES IDX 9 1 10 2 11 3 12 4 13 5 14 6 15 7 16 8 17 9 18 10 8 11 7 12
REMARK SMILES IDX 6 13 5 14 4 15 3 16 2 17 1 18
REMARK H PARENT
REMARK Flexibility Score: inf
ROOT
ATOM      1  C   UNL     1     -25.125   5.167  24.360  1.00  0.00     0.000 C 
ENDROOT
BRANCH   1   2
ATOM      2  C   UNL     1     -23.741   4.798  24.916  1.00  0.00     0.000 C 
BRANCH   2   3
ATOM      3  C   UNL     1     -23.461   3.285  24.875  1.00  0.00     0.000 C 
BRANCH   3   4
ATOM      4  C   UNL     1     -24.339   2.485  23.895  1.00  0.00     0.000 C 
BRANCH   4   5
ATOM      5  C   UNL     1     -23.520   1.710  22.853  1.00  0.00     0.000 C 
BRANCH   5   6
ATOM      6  C   UNL     1     -22.476   2.620  22.188  1.00  0.00     0.006 C 
BRANCH   6   7
ATOM      7  C   UNL     1     -21.044   2.269  22.614  1.00  0.00     0.053 C 
BRANCH   7   8
ATOM      8  C   UNL     1     -20.253   1.689  21.483  1.00  0.00     0.041 C 
ATOM      9  O   UNL     1     -19.424   2.401  20.859  1.00  0.00    -0.550 OA
ATOM     10  O   UNL     1     -20.456   0.370  21.095  1.00  0.00    -0.550 OA
ENDBRANCH   7   8
ENDBRANCH   6   7
ENDBRANCH   5   6
ENDBRANCH   4   5
ENDBRANCH   3   4
ENDBRANCH   2   3
ENDBRANCH   1   2
BRANCH   1  11
ATOM     11  C   UNL     1     -25.010   6.237  23.268  1.00  0.00     0.000 C 
BRANCH  11  12
ATOM     12  C   UNL     1     -23.704   6.079  22.478  1.00  0.00    -0.000 C 
BRANCH  12  13
ATOM     13  C   UNL     1     -22.992   7.419  22.223  1.00  0.00    -0.000 C 
BRANCH  13  14
ATOM     14  C   UNL     1     -21.536   7.454  22.734  1.00  0.00    -0.000 C 
BRANCH  14  15
ATOM     15  C   UNL     1     -20.942   6.043  22.896  1.00  0.00    -0.000 C 
BRANCH  15  16
ATOM     16  C   UNL     1     -19.790   5.775  21.903  1.00  0.00    -0.000 C 
BRANCH  16  17
ATOM     17  C   UNL     1     -20.111   6.194  20.458  1.00  0.00    -0.003 C 
ATOM     18  C   UNL     1     -21.152   5.295  19.793  1.00  0.00     0.004 C 
ENDBRANCH  16  17
ENDBRANCH  15  16
ENDBRANCH  14  15
ENDBRANCH  13  14
ENDBRANCH  12  13
ENDBRANCH  11  12
ENDBRANCH   1  11
TORSDOF 14
ENDMDL
MODEL 2
REMARK VINA RESULT:    -3.647      1.241      2.047
REMARK INTER + INTRA:          -8.866
REMARK INTER:                  -6.741
REMARK INTRA:                  -2.126
REMARK UNBOUND:                -2.234
REMARK SMILES CCCCCCCCCCCCCCCC(=O)[O-]
REMARK SMILES IDX 9 1 10 2 11 3 12 4 13 5 14 6 15 7 16 8 17 9 18 10 8 11 7 12
REMARK SMILES IDX 6 13 5 14 4 15 3 16 2 17 1 18
REMARK H PARENT
REMARK Flexibility Score: inf
ROOT
ATOM      1  C   UNL     1     -22.710   5.192  24.033  1.00  0.00     0.000 C 
ENDROOT
BRANCH   1   2
ATOM      2  C   UNL     1     -23.635   4.704  25.158  1.00  0.00     0.000 C 
BRANCH   2   3
ATOM      3  C   UNL     1     -24.876   3.959  24.634  1.00  0.00     0.000 C 
BRANCH   3   4
ATOM      4  C   UNL     1     -24.943   2.465  25.001  1.00  0.00     0.000 C 
BRANCH   4   5
ATOM      5  C   UNL     1     -23.778   1.652  24.420  1.00  0.00     0.000 C 
BRANCH   5   6
ATOM      6  C   UNL     1     -23.922   1.496  22.899  1.00  0.00     0.006 C 
BRANCH   6   7
ATOM      7  C   UNL     1     -22.641   1.891  22.150  1.00  0.00     0.053 C 
BRANCH   7   8
ATOM      8  C   UNL     1     -21.912   0.693  21.624  1.00  0.00     0.041 C 
ATOM      9  O   UNL     1     -22.491  -0.422  21.559  1.00  0.00    -0.550 OA
ATOM     10  O   UNL     1     -20.582   0.802  21.239  1.00  0.00    -0.550 OA
ENDBRANCH   7   8
ENDBRANCH   6   7
ENDBRANCH   5   6
ENDBRANCH   4   5
ENDBRANCH   3   4
ENDBRANCH   2   3
ENDBRANCH   1   2
BRANCH   1  11
ATOM     11  C   UNL     1     -23.486   5.372  22.723  1.00  0.00     0.000 C 
BRANCH  11  12
ATOM     12  C   UNL     1     -23.703   6.859  22.411  1.00  0.00    -0.000 C 
BRANCH  12  13
ATOM     13  C   UNL     1     -22.397   7.596  22.070  1.00  0.00    -0.000 C 
BRANCH  13  14
ATOM     14  C   UNL     1     -22.119   7.695  20.554  1.00  0.00    -0.000 C 
BRANCH  14  15
ATOM     15  C   UNL     1     -20.908   6.846  20.128  1.00  0.00    -0.000 C 
BRANCH  15  16
ATOM     16  C   UNL     1     -21.289   5.373  19.868  1.00  0.00    -0.000 C 
BRANCH  16  17
ATOM     17  C   UNL     1     -20.352   4.364  20.554  1.00  0.00    -0.003 C 
ATOM     18  C   UNL     1     -19.723   4.908  21.835  1.00  0.00     0.004 C 
ENDBRANCH  16  17
ENDBRANCH  15  16
ENDBRANCH  14  15
ENDBRANCH  13  14
ENDBRANCH  12  13
ENDBRANCH  11  12
ENDBRANCH   1  11
TORSDOF 14
ENDMDL
MODEL 3
REMARK VINA RESULT:    -3.645      1.652      4.905
REMARK INTER + INTRA:          -8.863
REMARK INTER:                  -7.722
REMARK INTRA:                  -1.141
REMARK UNBOUND:                -2.234
REMARK SMILES CCCCCCCCCCCCCCCC(=O)[O-]
REMARK SMILES IDX 9 1 10 2 11 3 12 4 13 5 14 6 15 7 16 8 17 9 18 10 8 11 7 12
REMARK SMILES IDX 6 13 5 14 4 15 3 16 2 17 1 18
REMARK H PARENT
REMARK Flexibility Score: inf
ROOT
ATOM      1  C   UNL     1     -25.121   5.454  24.175  1.00  0.00     0.000 C 
ENDROOT
BRANCH   1   2
ATOM      2  C   UNL     1     -23.849   5.493  23.315  1.00  0.00     0.000 C 
BRANCH   2   3
ATOM      3  C   UNL     1     -23.828   6.672  22.326  1.00  0.00     0.000 C 
BRANCH   3   4
ATOM      4  C   UNL     1     -22.470   7.386  22.189  1.00  0.00     0.000 C 
BRANCH   4   5
ATOM      5  C   UNL     1     -22.183   7.860  20.757  1.00  0.00     0.000 C 
BRANCH   5   6
ATOM      6  C   UNL     1     -21.359   6.817  19.988  1.00  0.00     0.006 C 
BRANCH   6   7
ATOM      7  C   UNL     1     -20.119   6.364  20.773  1.00  0.00     0.053 C 
BRANCH   7   8
ATOM      8  C   UNL     1     -19.924   4.881  20.696  1.00  0.00     0.041 C 
ATOM      9  O   UNL     1     -18.763   4.395  20.672  1.00  0.00    -0.550 OA
ATOM     10  O   UNL     1     -21.025   4.037  20.616  1.00  0.00    -0.550 OA
ENDBRANCH   7   8
ENDBRANCH   6   7
ENDBRANCH   5   6
ENDBRANCH   4   5
ENDBRANCH   3   4
ENDBRANCH   2   3
ENDBRANCH   1   2
BRANCH   1  11
ATOM     11  C   UNL     1     -25.049   4.324  25.210  1.00  0.00     0.000 C 
BRANCH  11  12
ATOM     12  C   UNL     1     -24.085   3.221  24.755  1.00  0.00    -0.000 C 
BRANCH  12  13
ATOM     13  C   UNL     1     -24.809   1.938  24.313  1.00  0.00    -0.000 C 
BRANCH  13  14
ATOM     14  C   UNL     1     -23.927   0.984  23.478  1.00  0.00    -0.000 C 
BRANCH  14  15
ATOM     15  C   UNL     1     -23.207   1.714  22.329  1.00  0.00    -0.000 C 
BRANCH  15  16
ATOM     16  C   UNL     1     -22.145   0.825  21.646  1.00  0.00    -0.000 C 
BRANCH  16  17
ATOM     17  C   UNL     1     -22.372  -0.681  21.858  1.00  0.00    -0.003 C 
ATOM     18  C   UNL     1     -22.203  -1.497  20.578  1.00  0.00     0.004 C 
ENDBRANCH  16  17
ENDBRANCH  15  16
ENDBRANCH  14  15
ENDBRANCH  13  14
ENDBRANCH  12  13
ENDBRANCH  11  12
ENDBRANCH   1  11
TORSDOF 14
ENDMDL
MODEL 4
REMARK VINA RESULT:    -3.614      1.699      3.134
REMARK INTER + INTRA:          -8.806
REMARK INTER:                  -7.105
REMARK INTRA:                  -1.701
REMARK UNBOUND:                -2.234
REMARK SMILES CCCCCCCCCCCCCCCC(=O)[O-]
REMARK SMILES IDX 9 1 10 2 11 3 12 4 13 5 14 6 15 7 16 8 17 9 18 10 8 11 7 12
REMARK SMILES IDX 6 13 5 14 4 15 3 16 2 17 1 18
REMARK H PARENT
REMARK Flexibility Score: inf
ROOT
ATOM      1  C   UNL     1     -23.014   2.573  23.765  1.00  0.00     0.000 C 
ENDROOT
BRANCH   1   2
ATOM      2  C   UNL     1     -23.019   2.423  22.236  1.00  0.00     0.000 C 
BRANCH   2   3
ATOM      3  C   UNL     1     -21.839   3.142  21.558  1.00  0.00     0.000 C 
BRANCH   3   4
ATOM      4  C   UNL     1     -20.447   2.770  22.104  1.00  0.00     0.000 C 
BRANCH   4   5
ATOM      5  C   UNL     1     -19.795   1.609  21.338  1.00  0.00     0.000 C 
BRANCH   5   6
ATOM      6  C   UNL     1     -20.198   0.257  21.944  1.00  0.00     0.006 C 
BRANCH   6   7
ATOM      7  C   UNL     1     -20.444  -0.811  20.868  1.00  0.00     0.053 C 
BRANCH   7   8
ATOM      8  C   UNL     1     -21.884  -1.216  20.805  1.00  0.00     0.041 C 
ATOM      9  O   UNL     1     -22.367  -1.675  19.738  1.00  0.00    -0.550 OA
ATOM     10  O   UNL     1     -22.702  -1.055  21.917  1.00  0.00    -0.550 OA
ENDBRANCH   7   8
ENDBRANCH   6   7
ENDBRANCH   5   6
ENDBRANCH   4   5
ENDBRANCH   3   4
ENDBRANCH   2   3
ENDBRANCH   1   2
BRANCH   1  11
ATOM     11  C   UNL     1     -24.117   3.533  24.225  1.00  0.00     0.000 C 
BRANCH  11  12
ATOM     12  C   UNL     1     -23.626   4.987  24.201  1.00  0.00    -0.000 C 
BRANCH  12  13
ATOM     13  C   UNL     1     -24.407   5.866  23.208  1.00  0.00    -0.000 C 
BRANCH  13  14
ATOM     14  C   UNL     1     -23.503   6.733  22.305  1.00  0.00    -0.000 C 
BRANCH  14  15
ATOM     15  C   UNL     1     -22.025   6.669  22.727  1.00  0.00    -0.000 C 
BRANCH  15  16
ATOM     16  C   UNL     1     -21.093   7.355  21.705  1.00  0.00    -0.000 C 
BRANCH  16  17
ATOM     17  C   UNL     1     -21.675   7.411  20.282  1.00  0.00    -0.003 C 
ATOM     18  C   UNL     1     -21.156   6.292  19.380  1.00  0.00     0.004 C 
ENDBRANCH  16  17
ENDBRANCH  15  16
ENDBRANCH  14  15
ENDBRANCH  13  14
ENDBRANCH  12  13
ENDBRANCH  11  12
ENDBRANCH   1  11
TORSDOF 14
ENDMDL
MODEL 5
REMARK VINA RESULT:    -3.602      1.798      2.680
REMARK INTER + INTRA:          -8.784
REMARK INTER:                  -6.517
REMARK INTRA:                  -2.267
REMARK UNBOUND:                -2.234
REMARK SMILES CCCCCCCCCCCCCCCC(=O)[O-]
REMARK SMILES IDX 9 1 10 2 11 3 12 4 13 5 14 6 15 7 16 8 17 9 18 10 8 11 7 12
REMARK SMILES IDX 6 13 5 14 4 15 3 16 2 17 1 18
REMARK H PARENT
REMARK Flexibility Score: inf
ROOT
ATOM      1  C   UNL     1     -22.501   5.171  23.864  1.00  0.00     0.000 C 
ENDROOT
BRANCH   1   2
ATOM      2  C   UNL     1     -22.199   3.674  23.703  1.00  0.00     0.000 C 
BRANCH   2   3
ATOM      3  C   UNL     1     -23.251   2.935  22.856  1.00  0.00     0.000 C 
BRANCH   3   4
ATOM      4  C   UNL     1     -22.715   1.741  22.044  1.00  0.00     0.000 C 
BRANCH   4   5
ATOM      5  C   UNL     1     -21.364   1.225  22.560  1.00  0.00     0.000 C 
BRANCH   5   6
ATOM      6  C   UNL     1     -20.491   0.719  21.402  1.00  0.00     0.006 C 
BRANCH   6   7
ATOM      7  C   UNL     1     -20.940  -0.659  20.895  1.00  0.00     0.053 C 
BRANCH   7   8
ATOM      8  C   UNL     1     -21.074  -1.646  22.013  1.00  0.00     0.041 C 
ATOM      9  O   UNL     1     -22.210  -2.069  22.352  1.00  0.00    -0.550 OA
ATOM     10  O   UNL     1     -19.947  -2.074  22.703  1.00  0.00    -0.550 OA
ENDBRANCH   7   8
ENDBRANCH   6   7
ENDBRANCH   5   6
ENDBRANCH   4   5
ENDBRANCH   3   4
ENDBRANCH   2   3
ENDBRANCH   1   2
BRANCH   1  11
ATOM     11  C   UNL     1     -23.932   5.493  23.417  1.00  0.00     0.000 C 
BRANCH  11  12
ATOM     12  C   UNL     1     -23.964   6.744  22.529  1.00  0.00    -0.000 C 
BRANCH  12  13
ATOM     13  C   UNL     1     -22.567   7.331  22.272  1.00  0.00    -0.000 C 
BRANCH  13  14
ATOM     14  C   UNL     1     -22.270   7.594  20.779  1.00  0.00    -0.000 C 
BRANCH  14  15
ATOM     15  C   UNL     1     -21.100   6.741  20.259  1.00  0.00    -0.000 C 
BRANCH  15  16
ATOM     16  C   UNL     1     -21.448   5.237  20.211  1.00  0.00    -0.000 C 
BRANCH  16  17
ATOM     17  C   UNL     1     -20.257   4.318  20.531  1.00  0.00    -0.003 C 
ATOM     18  C   UNL     1     -19.398   4.832  21.685  1.00  0.00     0.004 C 
ENDBRANCH  16  17
ENDBRANCH  15  16
ENDBRANCH  14  15
ENDBRANCH  13  14
ENDBRANCH  12  13
ENDBRANCH  11  12
ENDBRANCH   1  11
TORSDOF 14
ENDMDL
MODEL 6
REMARK VINA RESULT:    -3.534      2.060      4.789
REMARK INTER + INTRA:          -8.661
REMARK INTER:                  -6.554
REMARK INTRA:                  -2.107
REMARK UNBOUND:                -2.234
REMARK SMILES CCCCCCCCCCCCCCCC(=O)[O-]
REMARK SMILES IDX 9 1 10 2 11 3 12 4 13 5 14 6 15 7 16 8 17 9 18 10 8 11 7 12
REMARK SMILES IDX 6 13 5 14 4 15 3 16 2 17 1 18
REMARK H PARENT
REMARK Flexibility Score: inf
ROOT
ATOM      1  C   UNL     1     -23.671   2.717  26.010  1.00  0.00     0.000 C 
ENDROOT
BRANCH   1   2
ATOM      2  C   UNL     1     -23.615   4.216  25.679  1.00  0.00     0.000 C 
BRANCH   2   3
ATOM      3  C   UNL     1     -24.998   4.814  25.365  1.00  0.00     0.000 C 
BRANCH   3   4
ATOM      4  C   UNL     1     -25.125   5.473  23.979  1.00  0.00     0.000 C 
BRANCH   4   5
ATOM      5  C   UNL     1     -23.802   5.488  23.200  1.00  0.00     0.000 C 
BRANCH   5   6
ATOM      6  C   UNL     1     -23.630   6.809  22.434  1.00  0.00     0.006 C 
BRANCH   6   7
ATOM      7  C   UNL     1     -22.161   7.246  22.353  1.00  0.00     0.053 C 
BRANCH   7   8
ATOM      8  C   UNL     1     -21.586   7.013  20.990  1.00  0.00     0.041 C 
ATOM      9  O   UNL     1     -20.881   5.994  20.765  1.00  0.00    -0.550 OA
ATOM     10  O   UNL     1     -21.800   7.938  19.976  1.00  0.00    -0.550 OA
ENDBRANCH   7   8
ENDBRANCH   6   7
ENDBRANCH   5   6
ENDBRANCH   4   5
ENDBRANCH   3   4
ENDBRANCH   2   3
ENDBRANCH   1   2
BRANCH   1  11
ATOM     11  C   UNL     1     -25.051   2.134  25.683  1.00  0.00     0.000 C 
BRANCH  11  12
ATOM     12  C   UNL     1     -25.068   1.512  24.280  1.00  0.00    -0.000 C 
BRANCH  12  13
ATOM     13  C   UNL     1     -24.020   0.399  24.107  1.00  0.00    -0.000 C 
BRANCH  13  14
ATOM     14  C   UNL     1     -22.999   0.680  22.982  1.00  0.00    -0.000 C 
BRANCH  14  15
ATOM     15  C   UNL     1     -23.147   2.097  22.402  1.00  0.00    -0.000 C 
BRANCH  15  16
ATOM     16  C   UNL     1     -21.852   2.590  21.722  1.00  0.00    -0.000 C 
BRANCH  16  17
ATOM     17  C   UNL     1     -20.627   2.587  22.652  1.00  0.00    -0.003 C 
ATOM     18  C   UNL     1     -20.624   3.753  23.638  1.00  0.00     0.004 C 
ENDBRANCH  16  17
ENDBRANCH  15  16
ENDBRANCH  14  15
ENDBRANCH  13  14
ENDBRANCH  12  13
ENDBRANCH  11  12
ENDBRANCH   1  11
TORSDOF 14
ENDMDL
MODEL 7
REMARK VINA RESULT:    -3.533      2.463      4.725
REMARK INTER + INTRA:          -8.659
REMARK INTER:                  -6.091
REMARK INTRA:                  -2.567
REMARK UNBOUND:                -2.234
REMARK SMILES CCCCCCCCCCCCCCCC(=O)[O-]
REMARK SMILES IDX 9 1 10 2 11 3 12 4 13 5 14 6 15 7 16 8 17 9 18 10 8 11 7 12
REMARK SMILES IDX 6 13 5 14 4 15 3 16 2 17 1 18
REMARK H PARENT
REMARK Flexibility Score: inf
ROOT
ATOM      1  C   UNL     1     -22.529   7.193  22.373  1.00  0.00     0.000 C 
ENDROOT
BRANCH   1   2
ATOM      2  C   UNL     1     -22.361   7.779  20.963  1.00  0.00     0.000 C 
BRANCH   2   3
ATOM      3  C   UNL     1     -21.326   7.018  20.115  1.00  0.00     0.000 C 
BRANCH   3   4
ATOM      4  C   UNL     1     -21.518   5.490  20.067  1.00  0.00     0.000 C 
BRANCH   4   5
ATOM      5  C   UNL     1     -20.269   4.716  20.511  1.00  0.00     0.000 C 
BRANCH   5   6
ATOM      6  C   UNL     1     -19.273   5.642  21.225  1.00  0.00     0.006 C 
BRANCH   6   7
ATOM      7  C   UNL     1     -19.014   5.208  22.675  1.00  0.00     0.053 C 
BRANCH   7   8
ATOM      8  C   UNL     1     -19.028   6.373  23.615  1.00  0.00     0.041 C 
ATOM      9  O   UNL     1     -19.218   7.538  23.178  1.00  0.00    -0.550 OA
ATOM     10  O   UNL     1     -18.799   6.177  24.972  1.00  0.00    -0.550 OA
ENDBRANCH   7   8
ENDBRANCH   6   7
ENDBRANCH   5   6
ENDBRANCH   4   5
ENDBRANCH   3   4
ENDBRANCH   2   3
ENDBRANCH   1   2
BRANCH   1  11
ATOM     11  C   UNL     1     -23.964   6.699  22.594  1.00  0.00     0.000 C 
BRANCH  11  12
ATOM     12  C   UNL     1     -23.975   5.347  23.321  1.00  0.00    -0.000 C 
BRANCH  12  13
ATOM     13  C   UNL     1     -22.616   4.992  23.945  1.00  0.00    -0.000 C 
BRANCH  13  14
ATOM     14  C   UNL     1     -22.130   3.567  23.602  1.00  0.00    -0.000 C 
BRANCH  14  15
ATOM     15  C   UNL     1     -22.961   2.923  22.478  1.00  0.00    -0.000 C 
BRANCH  15  16
ATOM     16  C   UNL     1     -22.461   1.507  22.118  1.00  0.00    -0.000 C 
BRANCH  16  17
ATOM     17  C   UNL     1     -21.025   1.221  22.590  1.00  0.00    -0.003 C 
ATOM     18  C   UNL     1     -20.008   1.237  21.451  1.00  0.00     0.004 C 
ENDBRANCH  16  17
ENDBRANCH  15  16
ENDBRANCH  14  15
ENDBRANCH  13  14
ENDBRANCH  12  13
ENDBRANCH  11  12
ENDBRANCH   1  11
TORSDOF 14
ENDMDL
MODEL 8
REMARK VINA RESULT:    -3.504      1.554      4.421
REMARK INTER + INTRA:          -8.607
REMARK INTER:                  -6.746
REMARK INTRA:                  -1.861
REMARK UNBOUND:                -2.234
REMARK SMILES CCCCCCCCCCCCCCCC(=O)[O-]
REMARK SMILES IDX 9 1 10 2 11 3 12 4 13 5 14 6 15 7 16 8 17 9 18 10 8 11 7 12
REMARK SMILES IDX 6 13 5 14 4 15 3 16 2 17 1 18
REMARK H PARENT
REMARK Flexibility Score: inf
ROOT
ATOM      1  C   UNL     1     -20.971   6.721  23.069  1.00  0.00     0.000 C 
ENDROOT
BRANCH   1   2
ATOM      2  C   UNL     1     -19.646   6.316  22.405  1.00  0.00     0.000 C 
BRANCH   2   3
ATOM      3  C   UNL     1     -19.773   6.113  20.884  1.00  0.00     0.000 C 
BRANCH   3   4
ATOM      4  C   UNL     1     -20.568   4.866  20.456  1.00  0.00     0.000 C 
BRANCH   4   5
ATOM      5  C   UNL     1     -20.222   3.621  21.285  1.00  0.00     0.000 C 
BRANCH   5   6
ATOM      6  C   UNL     1     -21.495   2.882  21.723  1.00  0.00     0.006 C 
BRANCH   6   7
ATOM      7  C   UNL     1     -21.374   1.361  21.545  1.00  0.00     0.053 C 
BRANCH   7   8
ATOM      8  C   UNL     1     -22.603   0.647  22.016  1.00  0.00     0.041 C 
ATOM      9  O   UNL     1     -22.663  -0.610  21.968  1.00  0.00    -0.550 OA
ATOM     10  O   UNL     1     -23.696   1.370  22.477  1.00  0.00    -0.550 OA
ENDBRANCH   7   8
ENDBRANCH   6   7
ENDBRANCH   5   6
ENDBRANCH   4   5
ENDBRANCH   3   4
ENDBRANCH   2   3
ENDBRANCH   1   2
BRANCH   1  11
ATOM     11  C   UNL     1     -21.725   7.743  22.210  1.00  0.00     0.000 C 
BRANCH  11  12
ATOM     12  C   UNL     1     -23.204   7.359  22.067  1.00  0.00    -0.000 C 
BRANCH  12  13
ATOM     13  C   UNL     1     -23.512   5.951  22.603  1.00  0.00    -0.000 C 
BRANCH  13  14
ATOM     14  C   UNL     1     -24.812   5.874  23.432  1.00  0.00    -0.000 C 
BRANCH  14  15
ATOM     15  C   UNL     1     -24.772   4.740  24.472  1.00  0.00    -0.000 C 
BRANCH  15  16
ATOM     16  C   UNL     1     -23.341   4.210  24.707  1.00  0.00    -0.000 C 
BRANCH  16  17
ATOM     17  C   UNL     1     -22.725   4.669  26.039  1.00  0.00    -0.003 C 
ATOM     18  C   UNL     1     -23.772   5.094  27.067  1.00  0.00     0.004 C 
ENDBRANCH  16  17
ENDBRANCH  15  16
ENDBRANCH  14  15
ENDBRANCH  13  14
ENDBRANCH  12  13
ENDBRANCH  11  12
ENDBRANCH   1  11
TORSDOF 14
ENDMDL
MODEL 9
REMARK VINA RESULT:    -3.472     20.529     22.861
REMARK INTER + INTRA:          -8.547
REMARK INTER:                  -6.550
REMARK INTRA:                  -1.997
REMARK UNBOUND:                -2.234
REMARK SMILES CCCCCCCCCCCCCCCC(=O)[O-]
REMARK SMILES IDX 9 1 10 2 11 3 12 4 13 5 14 6 15 7 16 8 17 9 18 10 8 11 7 12
REMARK SMILES IDX 6 13 5 14 4 15 3 16 2 17 1 18
REMARK H PARENT
REMARK Flexibility Score: inf
ROOT
ATOM      1  C   UNL     1      -6.480  -9.235  33.757  1.00  0.00     0.000 C 
ENDROOT
BRANCH   1   2
ATOM      2  C   UNL     1      -5.241  -8.748  32.992  1.00  0.00     0.000 C 
BRANCH   2   3
ATOM      3  C   UNL     1      -4.957  -9.569  31.721  1.00  0.00     0.000 C 
BRANCH   3   4
ATOM      4  C   UNL     1      -4.976 -11.097  31.914  1.00  0.00     0.000 C 
BRANCH   4   5
ATOM      5  C   UNL     1      -6.075 -11.791  31.096  1.00  0.00     0.000 C 
BRANCH   5   6
ATOM      6  C   UNL     1      -7.018 -10.760  30.458  1.00  0.00     0.006 C 
BRANCH   6   7
ATOM      7  C   UNL     1      -8.304 -11.404  29.922  1.00  0.00     0.053 C 
BRANCH   7   8
ATOM      8  C   UNL     1      -9.488 -11.080  30.780  1.00  0.00     0.041 C 
ATOM      9  O   UNL     1     -10.595 -11.642  30.571  1.00  0.00    -0.550 OA
ATOM     10  O   UNL     1      -9.378 -10.132  31.790  1.00  0.00    -0.550 OA
ENDBRANCH   7   8
ENDBRANCH   6   7
ENDBRANCH   5   6
ENDBRANCH   4   5
ENDBRANCH   3   4
ENDBRANCH   2   3
ENDBRANCH   1   2
BRANCH   1  11
ATOM     11  C   UNL     1      -6.358  -8.923  35.253  1.00  0.00     0.000 C 
BRANCH  11  12
ATOM     12  C   UNL     1      -5.159  -8.005  35.529  1.00  0.00    -0.000 C 
BRANCH  12  13
ATOM     13  C   UNL     1      -5.575  -6.600  35.993  1.00  0.00    -0.000 C 
BRANCH  13  14
ATOM     14  C   UNL     1      -5.514  -5.535  34.876  1.00  0.00    -0.000 C 
BRANCH  14  15
ATOM     15  C   UNL     1      -6.887  -4.892  34.609  1.00  0.00    -0.000 C 
BRANCH  15  16
ATOM     16  C   UNL     1      -7.775  -5.766  33.698  1.00  0.00    -0.000 C 
BRANCH  16  17
ATOM     17  C   UNL     1      -7.273  -5.853  32.246  1.00  0.00    -0.003 C 
ATOM     18  C   UNL     1      -8.080  -6.828  31.392  1.00  0.00     0.004 C 
ENDBRANCH  16  17
ENDBRANCH  15  16
ENDBRANCH  14  15
ENDBRANCH  13  14
ENDBRANCH  12  13
ENDBRANCH  11  12
ENDBRANCH   1  11
TORSDOF 14
ENDMDL
