MODEL 1
REMARK VINA RESULT:    -5.841      0.000      0.000
REMARK INTER + INTRA:          -7.344
REMARK INTER:                  -7.036
REMARK INTRA:                  -0.307
REMARK UNBOUND:                -0.307
REMARK SMILES O=c1c(O)c(-c2ccc(O)c(O)c2)oc2cc(O)cc(O)c12
REMARK SMILES IDX 5 1 3 2 2 3 1 4 22 5 20 6 19 7 17 8 16 9 15 10 14 11 6 12
REMARK SMILES IDX 7 13 8 14 9 15 13 16 11 17 10 18 12 20 4 22 21 24 18 26
REMARK H PARENT 10 19 12 21 4 23 21 25 18 27
REMARK Flexibility Score: inf
ROOT
ATOM      1  C   UNL     1       3.429   6.728  10.923  1.00  0.00     0.180 A 
ATOM      2  C   UNL     1       3.898   6.335   9.657  1.00  0.00     0.208 A 
ATOM      3  C   UNL     1       2.979   6.181   8.607  1.00  0.00     0.238 A 
ATOM      4  O   UNL     1       3.415   5.902   7.461  1.00  0.00    -0.285 OA
ATOM      5  C   UNL     1       1.596   6.366   8.849  1.00  0.00     0.111 A 
ATOM      6  C   UNL     1       0.570   6.191   7.870  1.00  0.00     0.134 A 
ATOM      7  C   UNL     1      -0.755   6.506   8.195  1.00  0.00     0.093 A 
ATOM      8  C   UNL     1      -1.102   6.927   9.481  1.00  0.00     0.123 A 
ATOM      9  C   UNL     1      -0.117   7.046  10.458  1.00  0.00     0.094 A 
ATOM     10  C   UNL     1       1.220   6.777  10.154  1.00  0.00     0.146 A 
ATOM     11  O   UNL     1       2.129   6.926  11.111  1.00  0.00    -0.452 OA
ENDROOT
BRANCH   1  12
ATOM     12  C   UNL     1       4.338   6.925  12.074  1.00  0.00     0.025 A 
ATOM     13  C   UNL     1       4.815   8.213  12.363  1.00  0.00     0.016 A 
ATOM     14  C   UNL     1       5.691   8.421  13.431  1.00  0.00     0.051 A 
ATOM     15  C   UNL     1       6.115   7.345  14.217  1.00  0.00     0.157 A 
ATOM     16  C   UNL     1       4.782   5.841  12.852  1.00  0.00     0.062 A 
ATOM     17  C   UNL     1       5.662   6.048  13.925  1.00  0.00     0.158 A 
BRANCH  15  18
ATOM     18  O   UNL     1       6.988   7.583  15.279  1.00  0.00    -0.504 OA
ATOM     19  H   UNL     1       7.566   8.414  15.324  1.00  0.00     0.293 HD
ENDBRANCH  15  18
BRANCH  17  20
ATOM     20  O   UNL     1       6.094   4.968  14.695  1.00  0.00    -0.504 OA
ATOM     21  H   UNL     1       5.974   4.953  15.701  1.00  0.00     0.293 HD
ENDBRANCH  17  20
ENDBRANCH   1  12
BRANCH   2  22
ATOM     22  O   UNL     1       5.258   6.083   9.459  1.00  0.00    -0.502 OA
ATOM     23  H   UNL     1       5.767   6.440   8.659  1.00  0.00     0.293 HD
ENDBRANCH   2  22
BRANCH   6  24
ATOM     24  O   UNL     1       0.793   5.694   6.583  1.00  0.00    -0.507 OA
ATOM     25  H   UNL     1       0.814   4.716   6.336  1.00  0.00     0.293 HD
ENDBRANCH   6  24
BRANCH   8  26
ATOM     26  O   UNL     1      -2.426   7.220   9.801  1.00  0.00    -0.508 OA
ATOM     27  H   UNL     1      -3.013   7.761   9.178  1.00  0.00     0.293 HD
ENDBRANCH   8  26
TORSDOF 6
ENDMDL
MODEL 2
REMARK VINA RESULT:    -5.634      1.609      1.756
REMARK INTER + INTRA:          -7.094
REMARK INTER:                  -6.773
REMARK INTRA:                  -0.321
REMARK UNBOUND:                -0.307
REMARK SMILES O=c1c(O)c(-c2ccc(O)c(O)c2)oc2cc(O)cc(O)c12
REMARK SMILES IDX 5 1 3 2 2 3 1 4 22 5 20 6 19 7 17 8 16 9 15 10 14 11 6 12
REMARK SMILES IDX 7 13 8 14 9 15 13 16 11 17 10 18 12 20 4 22 21 24 18 26
REMARK H PARENT 10 19 12 21 4 23 21 25 18 27
REMARK Flexibility Score: inf
ROOT
ATOM      1  C   UNL     1       3.240   7.407  11.903  1.00  0.00     0.180 A 
ATOM      2  C   UNL     1       4.107   6.807  10.973  1.00  0.00     0.208 A 
ATOM      3  C   UNL     1       3.585   6.348   9.753  1.00  0.00     0.238 A 
ATOM      4  O   UNL     1       4.379   5.880   8.896  1.00  0.00    -0.285 OA
ATOM      5  C   UNL     1       2.195   6.444   9.500  1.00  0.00     0.111 A 
ATOM      6  C   UNL     1       1.551   5.971   8.316  1.00  0.00     0.134 A 
ATOM      7  C   UNL     1       0.185   6.217   8.129  1.00  0.00     0.093 A 
ATOM      8  C   UNL     1      -0.574   6.861   9.110  1.00  0.00     0.123 A 
ATOM      9  C   UNL     1       0.035   7.277  10.291  1.00  0.00     0.094 A 
ATOM     10  C   UNL     1       1.404   7.081  10.491  1.00  0.00     0.146 A 
ATOM     11  O   UNL     1       1.946   7.513  11.623  1.00  0.00    -0.452 OA
ENDROOT
BRANCH   1  12
ATOM     12  C   UNL     1       3.718   7.928  13.203  1.00  0.00     0.025 A 
ATOM     13  C   UNL     1       4.216   9.238  13.281  1.00  0.00     0.016 A 
ATOM     14  C   UNL     1       4.692   9.745  14.492  1.00  0.00     0.051 A 
ATOM     15  C   UNL     1       4.693   8.946  15.641  1.00  0.00     0.157 A 
ATOM     16  C   UNL     1       3.740   7.119  14.353  1.00  0.00     0.062 A 
ATOM     17  C   UNL     1       4.220   7.625  15.571  1.00  0.00     0.158 A 
BRANCH  15  18
ATOM     18  O   UNL     1       5.173   9.479  16.837  1.00  0.00    -0.504 OA
ATOM     19  H   UNL     1       6.116   9.305  17.163  1.00  0.00     0.293 HD
ENDBRANCH  15  18
BRANCH  17  20
ATOM     20  O   UNL     1       4.233   6.818  16.708  1.00  0.00    -0.504 OA
ATOM     21  H   UNL     1       4.657   7.129  17.574  1.00  0.00     0.293 HD
ENDBRANCH  17  20
ENDBRANCH   1  12
BRANCH   2  22
ATOM     22  O   UNL     1       5.463   6.652  11.274  1.00  0.00    -0.502 OA
ATOM     23  H   UNL     1       5.905   5.742  11.341  1.00  0.00     0.293 HD
ENDBRANCH   2  22
BRANCH   6  24
ATOM     24  O   UNL     1       2.193   5.240   7.314  1.00  0.00    -0.507 OA
ATOM     25  H   UNL     1       2.264   4.234   7.286  1.00  0.00     0.293 HD
ENDBRANCH   6  24
BRANCH   8  26
ATOM     26  O   UNL     1      -1.935   7.086   8.922  1.00  0.00    -0.508 OA
ATOM     27  H   UNL     1      -2.624   6.751   9.585  1.00  0.00     0.293 HD
ENDBRANCH   8  26
TORSDOF 6
ENDMDL
MODEL 3
REMARK VINA RESULT:    -5.495      1.866      6.612
REMARK INTER + INTRA:          -6.927
REMARK INTER:                  -6.843
REMARK INTRA:                  -0.084
REMARK UNBOUND:                -0.307
REMARK SMILES O=c1c(O)c(-c2ccc(O)c(O)c2)oc2cc(O)cc(O)c12
REMARK SMILES IDX 5 1 3 2 2 3 1 4 22 5 20 6 19 7 17 8 16 9 15 10 14 11 6 12
REMARK SMILES IDX 7 13 8 14 9 15 13 16 11 17 10 18 12 20 4 22 21 24 18 26
REMARK H PARENT 10 19 12 21 4 23 21 25 18 27
REMARK Flexibility Score: inf
ROOT
ATOM      1  C   UNL     1       3.510   6.484  10.663  1.00  0.00     0.180 A 
ATOM      2  C   UNL     1       4.597   5.634  10.395  1.00  0.00     0.208 A 
ATOM      3  C   UNL     1       5.422   5.226  11.456  1.00  0.00     0.238 A 
ATOM      4  O   UNL     1       6.347   4.406  11.220  1.00  0.00    -0.285 OA
ATOM      5  C   UNL     1       5.183   5.718  12.763  1.00  0.00     0.111 A 
ATOM      6  C   UNL     1       5.982   5.407  13.905  1.00  0.00     0.134 A 
ATOM      7  C   UNL     1       5.588   5.866  15.168  1.00  0.00     0.093 A 
ATOM      8  C   UNL     1       4.461   6.677  15.322  1.00  0.00     0.123 A 
ATOM      9  C   UNL     1       3.708   7.031  14.206  1.00  0.00     0.094 A 
ATOM     10  C   UNL     1       4.052   6.557  12.938  1.00  0.00     0.146 A 
ATOM     11  O   UNL     1       3.292   6.902  11.905  1.00  0.00    -0.452 OA
ENDROOT
BRANCH   1  12
ATOM     12  C   UNL     1       2.589   6.944   9.600  1.00  0.00     0.025 A 
ATOM     13  C   UNL     1       2.347   8.318   9.445  1.00  0.00     0.016 A 
ATOM     14  C   UNL     1       1.465   8.775   8.463  1.00  0.00     0.051 A 
ATOM     15  C   UNL     1       0.800   7.867   7.632  1.00  0.00     0.157 A 
ATOM     16  C   UNL     1       1.903   6.032   8.779  1.00  0.00     0.062 A 
ATOM     17  C   UNL     1       1.016   6.489   7.793  1.00  0.00     0.158 A 
BRANCH  15  18
ATOM     18  O   UNL     1      -0.073   8.353   6.659  1.00  0.00    -0.504 OA
ATOM     19  H   UNL     1       0.243   8.604   5.730  1.00  0.00     0.293 HD
ENDBRANCH  15  18
BRANCH  17  20
ATOM     20  O   UNL     1       0.344   5.578   6.978  1.00  0.00    -0.504 OA
ATOM     21  H   UNL     1       0.525   4.582   7.035  1.00  0.00     0.293 HD
ENDBRANCH  17  20
ENDBRANCH   1  12
BRANCH   2  22
ATOM     22  O   UNL     1       4.861   5.221   9.086  1.00  0.00    -0.502 OA
ATOM     23  H   UNL     1       4.893   4.244   8.820  1.00  0.00     0.293 HD
ENDBRANCH   2  22
BRANCH   6  24
ATOM     24  O   UNL     1       7.174   4.679  13.853  1.00  0.00    -0.507 OA
ATOM     25  H   UNL     1       7.586   4.188  14.632  1.00  0.00     0.293 HD
ENDBRANCH   6  24
BRANCH   8  26
ATOM     26  O   UNL     1       4.087   7.144  16.580  1.00  0.00    -0.508 OA
ATOM     27  H   UNL     1       3.159   6.979  16.952  1.00  0.00     0.293 HD
ENDBRANCH   8  26
TORSDOF 6
ENDMDL
MODEL 4
REMARK VINA RESULT:    -5.467      1.985      2.263
REMARK INTER + INTRA:          -6.893
REMARK INTER:                  -6.923
REMARK INTRA:                   0.030
REMARK UNBOUND:                -0.307
REMARK SMILES O=c1c(O)c(-c2ccc(O)c(O)c2)oc2cc(O)cc(O)c12
REMARK SMILES IDX 5 1 3 2 2 3 1 4 22 5 20 6 19 7 17 8 16 9 15 10 14 11 6 12
REMARK SMILES IDX 7 13 8 14 9 15 13 16 11 17 10 18 12 20 4 22 21 24 18 26
REMARK H PARENT 10 19 12 21 4 23 21 25 18 27
REMARK Flexibility Score: inf
ROOT
ATOM      1  C   UNL     1       3.863   6.025  11.839  1.00  0.00     0.180 A 
ATOM      2  C   UNL     1       3.825   4.898  10.999  1.00  0.00     0.208 A 
ATOM      3  C   UNL     1       3.100   4.968   9.799  1.00  0.00     0.238 A 
ATOM      4  O   UNL     1       3.132   3.982   9.017  1.00  0.00    -0.285 OA
ATOM      5  C   UNL     1       2.376   6.142   9.480  1.00  0.00     0.111 A 
ATOM      6  C   UNL     1       1.570   6.308   8.312  1.00  0.00     0.134 A 
ATOM      7  C   UNL     1       0.985   7.553   8.048  1.00  0.00     0.093 A 
ATOM      8  C   UNL     1       1.123   8.619   8.940  1.00  0.00     0.123 A 
ATOM      9  C   UNL     1       1.861   8.450  10.108  1.00  0.00     0.094 A 
ATOM     10  C   UNL     1       2.489   7.233  10.382  1.00  0.00     0.146 A 
ATOM     11  O   UNL     1       3.201   7.124  11.498  1.00  0.00    -0.452 OA
ENDROOT
BRANCH   1  12
ATOM     12  C   UNL     1       4.618   6.032  13.113  1.00  0.00     0.025 A 
ATOM     13  C   UNL     1       5.952   5.596  13.126  1.00  0.00     0.016 A 
ATOM     14  C   UNL     1       6.678   5.575  14.320  1.00  0.00     0.051 A 
ATOM     15  C   UNL     1       6.078   5.973  15.519  1.00  0.00     0.157 A 
ATOM     16  C   UNL     1       4.010   6.412  14.323  1.00  0.00     0.062 A 
ATOM     17  C   UNL     1       4.737   6.389  15.522  1.00  0.00     0.158 A 
BRANCH  15  18
ATOM     18  O   UNL     1       6.828   5.943  16.695  1.00  0.00    -0.504 OA
ATOM     19  H   UNL     1       7.787   6.266  16.729  1.00  0.00     0.293 HD
ENDBRANCH  15  18
BRANCH  17  20
ATOM     20  O   UNL     1       4.129   6.773  16.717  1.00  0.00    -0.504 OA
ATOM     21  H   UNL     1       3.937   7.746  16.926  1.00  0.00     0.293 HD
ENDBRANCH  17  20
ENDBRANCH   1  12
BRANCH   2  22
ATOM     22  O   UNL     1       4.483   3.722  11.369  1.00  0.00    -0.502 OA
ATOM     23  H   UNL     1       4.059   3.027  11.972  1.00  0.00     0.293 HD
ENDBRANCH   2  22
BRANCH   6  24
ATOM     24  O   UNL     1       1.294   5.285   7.400  1.00  0.00    -0.507 OA
ATOM     25  H   UNL     1       0.825   4.421   7.625  1.00  0.00     0.293 HD
ENDBRANCH   6  24
BRANCH   8  26
ATOM     26  O   UNL     1       0.523   9.848   8.677  1.00  0.00    -0.508 OA
ATOM     27  H   UNL     1      -0.214   9.941   7.990  1.00  0.00     0.293 HD
ENDBRANCH   8  26
TORSDOF 6
ENDMDL
MODEL 5
REMARK VINA RESULT:    -5.435      1.569      6.972
REMARK INTER + INTRA:          -6.854
REMARK INTER:                  -6.539
REMARK INTRA:                  -0.315
REMARK UNBOUND:                -0.307
REMARK SMILES O=c1c(O)c(-c2ccc(O)c(O)c2)oc2cc(O)cc(O)c12
REMARK SMILES IDX 5 1 3 2 2 3 1 4 22 5 20 6 19 7 17 8 16 9 15 10 14 11 6 12
REMARK SMILES IDX 7 13 8 14 9 15 13 16 11 17 10 18 12 20 4 22 21 24 18 26
REMARK H PARENT 10 19 12 21 4 23 21 25 18 27
REMARK Flexibility Score: inf
ROOT
ATOM      1  C   UNL     1       2.887   7.538  10.905  1.00  0.00     0.180 A 
ATOM      2  C   UNL     1       3.614   8.725  10.707  1.00  0.00     0.208 A 
ATOM      3  C   UNL     1       4.714   8.996  11.536  1.00  0.00     0.238 A 
ATOM      4  O   UNL     1       5.404  10.023  11.304  1.00  0.00    -0.285 OA
ATOM      5  C   UNL     1       5.040   8.107  12.588  1.00  0.00     0.111 A 
ATOM      6  C   UNL     1       6.106   8.305  13.518  1.00  0.00     0.134 A 
ATOM      7  C   UNL     1       6.401   7.304  14.452  1.00  0.00     0.093 A 
ATOM      8  C   UNL     1       5.630   6.142  14.533  1.00  0.00     0.123 A 
ATOM      9  C   UNL     1       4.555   5.966  13.667  1.00  0.00     0.094 A 
ATOM     10  C   UNL     1       4.258   6.927  12.699  1.00  0.00     0.146 A 
ATOM     11  O   UNL     1       3.236   6.707  11.879  1.00  0.00    -0.452 OA
ENDROOT
BRANCH   1  12
ATOM     12  C   UNL     1       1.725   7.176  10.062  1.00  0.00     0.025 A 
ATOM     13  C   UNL     1       0.426   7.380  10.554  1.00  0.00     0.016 A 
ATOM     14  C   UNL     1      -0.686   7.027   9.785  1.00  0.00     0.051 A 
ATOM     15  C   UNL     1      -0.518   6.449   8.522  1.00  0.00     0.157 A 
ATOM     16  C   UNL     1       1.892   6.575   8.801  1.00  0.00     0.062 A 
ATOM     17  C   UNL     1       0.777   6.218   8.029  1.00  0.00     0.158 A 
BRANCH  15  18
ATOM     18  O   UNL     1      -1.646   6.108   7.777  1.00  0.00    -0.504 OA
ATOM     19  H   UNL     1      -2.412   6.755   7.635  1.00  0.00     0.293 HD
ENDBRANCH  15  18
BRANCH  17  20
ATOM     20  O   UNL     1       0.951   5.628   6.777  1.00  0.00    -0.504 OA
ATOM     21  H   UNL     1       0.671   4.671   6.598  1.00  0.00     0.293 HD
ENDBRANCH  17  20
ENDBRANCH   1  12
BRANCH   2  22
ATOM     22  O   UNL     1       3.229   9.627   9.711  1.00  0.00    -0.502 OA
ATOM     23  H   UNL     1       3.170  10.625   9.874  1.00  0.00     0.293 HD
ENDBRANCH   2  22
BRANCH   6  24
ATOM     24  O   UNL     1       6.882   9.465  13.583  1.00  0.00    -0.507 OA
ATOM     25  H   UNL     1       6.550  10.367  13.889  1.00  0.00     0.293 HD
ENDBRANCH   6  24
BRANCH   8  26
ATOM     26  O   UNL     1       5.922   5.160  15.477  1.00  0.00    -0.508 OA
ATOM     27  H   UNL     1       5.205   4.542  15.837  1.00  0.00     0.293 HD
ENDBRANCH   8  26
TORSDOF 6
ENDMDL
MODEL 6
REMARK VINA RESULT:    -5.306      1.896      7.168
REMARK INTER + INTRA:          -6.699
REMARK INTER:                  -6.585
REMARK INTRA:                  -0.114
REMARK UNBOUND:                -0.307
REMARK SMILES O=c1c(O)c(-c2ccc(O)c(O)c2)oc2cc(O)cc(O)c12
REMARK SMILES IDX 5 1 3 2 2 3 1 4 22 5 20 6 19 7 17 8 16 9 15 10 14 11 6 12
REMARK SMILES IDX 7 13 8 14 9 15 13 16 11 17 10 18 12 20 4 22 21 24 18 26
REMARK H PARENT 10 19 12 21 4 23 21 25 18 27
REMARK Flexibility Score: inf
ROOT
ATOM      1  C   UNL     1       2.652   7.282  11.584  1.00  0.00     0.180 A 
ATOM      2  C   UNL     1       2.428   8.577  12.082  1.00  0.00     0.208 A 
ATOM      3  C   UNL     1       2.994   8.941  13.314  1.00  0.00     0.238 A 
ATOM      4  O   UNL     1       2.851  10.124  13.717  1.00  0.00    -0.285 OA
ATOM      5  C   UNL     1       3.729   7.988  14.061  1.00  0.00     0.111 A 
ATOM      6  C   UNL     1       4.309   8.233  15.343  1.00  0.00     0.134 A 
ATOM      7  C   UNL     1       5.106   7.248  15.939  1.00  0.00     0.093 A 
ATOM      8  C   UNL     1       5.292   6.004  15.331  1.00  0.00     0.123 A 
ATOM      9  C   UNL     1       4.685   5.736  14.107  1.00  0.00     0.094 A 
ATOM     10  C   UNL     1       3.916   6.712  13.468  1.00  0.00     0.146 A 
ATOM     11  O   UNL     1       3.374   6.420  12.291  1.00  0.00    -0.452 OA
ENDROOT
BRANCH   1  12
ATOM     12  C   UNL     1       2.101   6.830  10.286  1.00  0.00     0.025 A 
ATOM     13  C   UNL     1       2.980   6.467   9.253  1.00  0.00     0.016 A 
ATOM     14  C   UNL     1       2.484   6.058   8.013  1.00  0.00     0.051 A 
ATOM     15  C   UNL     1       1.105   6.021   7.780  1.00  0.00     0.157 A 
ATOM     16  C   UNL     1       0.716   6.812  10.044  1.00  0.00     0.062 A 
ATOM     17  C   UNL     1       0.216   6.403   8.798  1.00  0.00     0.158 A 
BRANCH  15  18
ATOM     18  O   UNL     1       0.639   5.606   6.533  1.00  0.00    -0.504 OA
ATOM     19  H   UNL     1       0.222   6.252   5.873  1.00  0.00     0.293 HD
ENDBRANCH  15  18
BRANCH  17  20
ATOM     20  O   UNL     1      -1.159   6.383   8.568  1.00  0.00    -0.504 OA
ATOM     21  H   UNL     1      -1.561   5.855   7.802  1.00  0.00     0.293 HD
ENDBRANCH  17  20
ENDBRANCH   1  12
BRANCH   2  22
ATOM     22  O   UNL     1       1.635   9.478  11.366  1.00  0.00    -0.502 OA
ATOM     23  H   UNL     1       0.758   9.210  10.937  1.00  0.00     0.293 HD
ENDBRANCH   2  22
BRANCH   6  24
ATOM     24  O   UNL     1       4.116   9.406  16.078  1.00  0.00    -0.507 OA
ATOM     25  H   UNL     1       3.678  10.243  15.727  1.00  0.00     0.293 HD
ENDBRANCH   6  24
BRANCH   8  26
ATOM     26  O   UNL     1       6.072   5.024  15.940  1.00  0.00    -0.508 OA
ATOM     27  H   UNL     1       5.669   4.344  16.574  1.00  0.00     0.293 HD
ENDBRANCH   8  26
TORSDOF 6
ENDMDL
MODEL 7
REMARK VINA RESULT:    -5.196     16.741     18.599
REMARK INTER + INTRA:          -6.566
REMARK INTER:                  -6.254
REMARK INTRA:                  -0.312
REMARK UNBOUND:                -0.307
REMARK SMILES O=c1c(O)c(-c2ccc(O)c(O)c2)oc2cc(O)cc(O)c12
REMARK SMILES IDX 5 1 3 2 2 3 1 4 22 5 20 6 19 7 17 8 16 9 15 10 14 11 6 12
REMARK SMILES IDX 7 13 8 14 9 15 13 16 11 17 10 18 12 20 4 22 21 24 18 26
REMARK H PARENT 10 19 12 21 4 23 21 25 18 27
REMARK Flexibility Score: inf
ROOT
ATOM      1  C   UNL     1      -6.437  -7.963  11.217  1.00  0.00     0.180 A 
ATOM      2  C   UNL     1      -6.338  -7.963  12.619  1.00  0.00     0.208 A 
ATOM      3  C   UNL     1      -5.153  -8.418  13.219  1.00  0.00     0.238 A 
ATOM      4  O   UNL     1      -5.044  -8.344  14.470  1.00  0.00    -0.285 OA
ATOM      5  C   UNL     1      -4.102  -8.920  12.413  1.00  0.00     0.111 A 
ATOM      6  C   UNL     1      -2.874  -9.448  12.915  1.00  0.00     0.134 A 
ATOM      7  C   UNL     1      -1.864  -9.817  12.019  1.00  0.00     0.093 A 
ATOM      8  C   UNL     1      -2.060  -9.739  10.638  1.00  0.00     0.123 A 
ATOM      9  C   UNL     1      -3.275  -9.277  10.138  1.00  0.00     0.094 A 
ATOM     10  C   UNL     1      -4.288  -8.864  11.007  1.00  0.00     0.146 A 
ATOM     11  O   UNL     1      -5.422  -8.410  10.486  1.00  0.00    -0.452 OA
ENDROOT
BRANCH   1  12
ATOM     12  C   UNL     1      -7.647  -7.486  10.512  1.00  0.00     0.025 A 
ATOM     13  C   UNL     1      -8.727  -8.364  10.323  1.00  0.00     0.016 A 
ATOM     14  C   UNL     1      -9.871  -7.942   9.642  1.00  0.00     0.051 A 
ATOM     15  C   UNL     1      -9.950  -6.644   9.126  1.00  0.00     0.157 A 
ATOM     16  C   UNL     1      -7.719  -6.188   9.974  1.00  0.00     0.062 A 
ATOM     17  C   UNL     1      -8.867  -5.764   9.289  1.00  0.00     0.158 A 
BRANCH  15  18
ATOM     18  O   UNL     1     -11.106  -6.250   8.453  1.00  0.00    -0.504 OA
ATOM     19  H   UNL     1     -11.261  -5.291   8.167  1.00  0.00     0.293 HD
ENDBRANCH  15  18
BRANCH  17  20
ATOM     20  O   UNL     1      -8.933  -4.473   8.764  1.00  0.00    -0.504 OA
ATOM     21  H   UNL     1      -9.484  -3.748   9.207  1.00  0.00     0.293 HD
ENDBRANCH  17  20
ENDBRANCH   1  12
BRANCH   2  22
ATOM     22  O   UNL     1      -7.415  -7.535  13.399  1.00  0.00    -0.502 OA
ATOM     23  H   UNL     1      -7.523  -7.801  14.371  1.00  0.00     0.293 HD
ENDBRANCH   2  22
BRANCH   6  24
ATOM     24  O   UNL     1      -2.607  -9.652  14.272  1.00  0.00    -0.507 OA
ATOM     25  H   UNL     1      -1.708  -9.907  14.652  1.00  0.00     0.293 HD
ENDBRANCH   6  24
BRANCH   8  26
ATOM     26  O   UNL     1      -1.055 -10.125   9.754  1.00  0.00    -0.508 OA
ATOM     27  H   UNL     1      -1.239 -10.764   8.990  1.00  0.00     0.293 HD
ENDBRANCH   8  26
TORSDOF 6
ENDMDL
MODEL 8
REMARK VINA RESULT:    -5.143      2.296      2.380
REMARK INTER + INTRA:          -6.503
REMARK INTER:                  -6.202
REMARK INTRA:                  -0.300
REMARK UNBOUND:                -0.307
REMARK SMILES O=c1c(O)c(-c2ccc(O)c(O)c2)oc2cc(O)cc(O)c12
REMARK SMILES IDX 5 1 3 2 2 3 1 4 22 5 20 6 19 7 17 8 16 9 15 10 14 11 6 12
REMARK SMILES IDX 7 13 8 14 9 15 13 16 11 17 10 18 12 20 4 22 21 24 18 26
REMARK H PARENT 10 19 12 21 4 23 21 25 18 27
REMARK Flexibility Score: inf
ROOT
ATOM      1  C   UNL     1       2.924   8.052  11.581  1.00  0.00     0.180 A 
ATOM      2  C   UNL     1       3.613   8.933  10.730  1.00  0.00     0.208 A 
ATOM      3  C   UNL     1       3.118   9.156   9.435  1.00  0.00     0.238 A 
ATOM      4  O   UNL     1       3.697  10.002   8.706  1.00  0.00    -0.285 OA
ATOM      5  C   UNL     1       1.972   8.454   8.987  1.00  0.00     0.111 A 
ATOM      6  C   UNL     1       1.410   8.568   7.679  1.00  0.00     0.134 A 
ATOM      7  C   UNL     1       0.212   7.905   7.384  1.00  0.00     0.093 A 
ATOM      8  C   UNL     1      -0.409   7.081   8.326  1.00  0.00     0.123 A 
ATOM      9  C   UNL     1       0.163   6.920   9.585  1.00  0.00     0.094 A 
ATOM     10  C   UNL     1       1.336   7.599   9.924  1.00  0.00     0.146 A 
ATOM     11  O   UNL     1       1.833   7.432  11.144  1.00  0.00    -0.452 OA
ENDROOT
BRANCH   1  12
ATOM     12  C   UNL     1       3.375   7.777  12.963  1.00  0.00     0.025 A 
ATOM     13  C   UNL     1       3.062   8.688  13.985  1.00  0.00     0.016 A 
ATOM     14  C   UNL     1       3.495   8.460  15.294  1.00  0.00     0.051 A 
ATOM     15  C   UNL     1       4.261   7.330  15.598  1.00  0.00     0.157 A 
ATOM     16  C   UNL     1       4.164   6.653  13.268  1.00  0.00     0.062 A 
ATOM     17  C   UNL     1       4.601   6.424  14.581  1.00  0.00     0.158 A 
BRANCH  15  18
ATOM     18  O   UNL     1       4.678   7.129  16.914  1.00  0.00    -0.504 OA
ATOM     19  H   UNL     1       4.264   7.628  17.692  1.00  0.00     0.293 HD
ENDBRANCH  15  18
BRANCH  17  20
ATOM     20  O   UNL     1       5.378   5.304  14.875  1.00  0.00    -0.504 OA
ATOM     21  H   UNL     1       5.843   4.775  14.147  1.00  0.00     0.293 HD
ENDBRANCH  17  20
ENDBRANCH   1  12
BRANCH   2  22
ATOM     22  O   UNL     1       4.785   9.558  11.164  1.00  0.00    -0.502 OA
ATOM     23  H   UNL     1       5.434  10.001  10.525  1.00  0.00     0.293 HD
ENDBRANCH   2  22
BRANCH   6  24
ATOM     24  O   UNL     1       1.993   9.292   6.636  1.00  0.00    -0.507 OA
ATOM     25  H   UNL     1       1.543  10.039   6.129  1.00  0.00     0.293 HD
ENDBRANCH   6  24
BRANCH   8  26
ATOM     26  O   UNL     1      -1.591   6.412   8.016  1.00  0.00    -0.508 OA
ATOM     27  H   UNL     1      -1.626   5.402   7.950  1.00  0.00     0.293 HD
ENDBRANCH   8  26
TORSDOF 6
ENDMDL
MODEL 9
REMARK VINA RESULT:    -5.141      3.126      4.489
REMARK INTER + INTRA:          -6.500
REMARK INTER:                  -6.173
REMARK INTRA:                  -0.327
REMARK UNBOUND:                -0.307
REMARK SMILES O=c1c(O)c(-c2ccc(O)c(O)c2)oc2cc(O)cc(O)c12
REMARK SMILES IDX 5 1 3 2 2 3 1 4 22 5 20 6 19 7 17 8 16 9 15 10 14 11 6 12
REMARK SMILES IDX 7 13 8 14 9 15 13 16 11 17 10 18 12 20 4 22 21 24 18 26
REMARK H PARENT 10 19 12 21 4 23 21 25 18 27
REMARK Flexibility Score: inf
ROOT
ATOM      1  C   UNL     1       4.305   5.109   9.592  1.00  0.00     0.180 A 
ATOM      2  C   UNL     1       4.614   6.233  10.377  1.00  0.00     0.208 A 
ATOM      3  C   UNL     1       3.676   7.273  10.479  1.00  0.00     0.238 A 
ATOM      4  O   UNL     1       3.930   8.240  11.243  1.00  0.00    -0.285 OA
ATOM      5  C   UNL     1       2.464   7.202   9.750  1.00  0.00     0.111 A 
ATOM      6  C   UNL     1       1.461   8.219   9.743  1.00  0.00     0.134 A 
ATOM      7  C   UNL     1       0.254   7.992   9.069  1.00  0.00     0.093 A 
ATOM      8  C   UNL     1       0.040   6.814   8.349  1.00  0.00     0.123 A 
ATOM      9  C   UNL     1       1.035   5.841   8.304  1.00  0.00     0.094 A 
ATOM     10  C   UNL     1       2.234   6.021   8.998  1.00  0.00     0.146 A 
ATOM     11  O   UNL     1       3.146   5.056   8.946  1.00  0.00    -0.452 OA
ENDROOT
BRANCH   1  12
ATOM     12  C   UNL     1       5.236   3.968   9.448  1.00  0.00     0.025 A 
ATOM     13  C   UNL     1       6.067   3.894   8.319  1.00  0.00     0.016 A 
ATOM     14  C   UNL     1       6.939   2.815   8.151  1.00  0.00     0.051 A 
ATOM     15  C   UNL     1       6.983   1.787   9.099  1.00  0.00     0.157 A 
ATOM     16  C   UNL     1       5.266   2.923  10.389  1.00  0.00     0.062 A 
ATOM     17  C   UNL     1       6.140   1.838  10.221  1.00  0.00     0.158 A 
BRANCH  15  18
ATOM     18  O   UNL     1       7.865   0.724   8.905  1.00  0.00    -0.504 OA
ATOM     19  H   UNL     1       7.542  -0.205   8.661  1.00  0.00     0.293 HD
ENDBRANCH  15  18
BRANCH  17  20
ATOM     20  O   UNL     1       6.167   0.809  11.161  1.00  0.00    -0.504 OA
ATOM     21  H   UNL     1       5.315   0.418  11.546  1.00  0.00     0.293 HD
ENDBRANCH  17  20
ENDBRANCH   1  12
BRANCH   2  22
ATOM     22  O   UNL     1       5.849   6.318  11.027  1.00  0.00    -0.502 OA
ATOM     23  H   UNL     1       6.292   5.517  11.461  1.00  0.00     0.293 HD
ENDBRANCH   2  22
BRANCH   6  24
ATOM     24  O   UNL     1       1.606   9.467  10.355  1.00  0.00    -0.507 OA
ATOM     25  H   UNL     1       1.147   9.750  11.207  1.00  0.00     0.293 HD
ENDBRANCH   6  24
BRANCH   8  26
ATOM     26  O   UNL     1      -1.157   6.605   7.667  1.00  0.00    -0.508 OA
ATOM     27  H   UNL     1      -1.636   5.714   7.699  1.00  0.00     0.293 HD
ENDBRANCH   8  26
TORSDOF 6
ENDMDL
