MODEL 1
REMARK VINA RESULT:    -4.970      0.000      0.000
REMARK INTER + INTRA:         -15.098
REMARK INTER:                 -11.362
REMARK INTRA:                  -3.737
REMARK UNBOUND:                -3.737
REMARK SMILES CCCCCCCCCCCCCCCCCCCCCCCC(=O)[O-]
REMARK SMILES IDX 13 1 14 2 15 3 16 4 17 5 18 6 19 7 20 8 21 9 22 10 23 11
REMARK SMILES IDX 24 12 25 13 26 14 12 15 11 16 10 17 9 18 8 19 7 20 6 21 5 22
REMARK SMILES IDX 4 23 3 24 2 25 1 26
REMARK H PARENT
REMARK Flexibility Score: inf
ROOT
ATOM      1  C   UNL     1      17.408 -30.792  22.501  1.00  0.00     0.000 C 
ENDROOT
BRANCH   1   2
ATOM      2  C   UNL     1      16.714 -29.542  21.917  1.00  0.00     0.000 C 
BRANCH   2   3
ATOM      3  C   UNL     1      15.188 -29.689  21.767  1.00  0.00     0.000 C 
BRANCH   3   4
ATOM      4  C   UNL     1      14.354 -29.095  22.918  1.00  0.00     0.000 C 
BRANCH   4   5
ATOM      5  C   UNL     1      13.503 -30.111  23.704  1.00  0.00     0.000 C 
BRANCH   5   6
ATOM      6  C   UNL     1      13.529 -31.519  23.086  1.00  0.00     0.000 C 
BRANCH   6   7
ATOM      7  C   UNL     1      14.281 -32.536  23.960  1.00  0.00     0.000 C 
BRANCH   7   8
ATOM      8  C   UNL     1      14.959 -33.642  23.136  1.00  0.00     0.000 C 
BRANCH   8   9
ATOM      9  C   UNL     1      14.836 -33.358  21.632  1.00  0.00     0.000 C 
BRANCH   9  10
ATOM     10  C   UNL     1      16.091 -33.818  20.881  1.00  0.00     0.006 C 
BRANCH  10  11
ATOM     11  C   UNL     1      15.826 -35.116  20.110  1.00  0.00     0.053 C 
BRANCH  11  12
ATOM     12  C   UNL     1      17.024 -36.010  20.162  1.00  0.00     0.041 C 
ATOM     13  O   UNL     1      17.844 -35.918  21.114  1.00  0.00    -0.550 OA
ATOM     14  O   UNL     1      17.210 -36.980  19.185  1.00  0.00    -0.550 OA
ENDBRANCH  11  12
ENDBRANCH  10  11
ENDBRANCH   9  10
ENDBRANCH   8   9
ENDBRANCH   7   8
ENDBRANCH   6   7
ENDBRANCH   5   6
ENDBRANCH   4   5
ENDBRANCH   3   4
ENDBRANCH   2   3
ENDBRANCH   1   2
BRANCH   1  15
ATOM     15  C   UNL     1      17.519 -30.753  24.034  1.00  0.00     0.000 C 
BRANCH  15  16
ATOM     16  C   UNL     1      18.102 -32.049  24.624  1.00  0.00     0.000 C 
BRANCH  16  17
ATOM     17  C   UNL     1      18.628 -33.034  23.556  1.00  0.00     0.000 C 
BRANCH  17  18
ATOM     18  C   UNL     1      20.154 -33.214  23.640  1.00  0.00    -0.000 C 
BRANCH  18  19
ATOM     19  C   UNL     1      20.928 -31.946  23.244  1.00  0.00    -0.000 C 
BRANCH  19  20
ATOM     20  C   UNL     1      21.370 -31.955  21.772  1.00  0.00    -0.000 C 
BRANCH  20  21
ATOM     21  C   UNL     1      20.784 -30.753  21.018  1.00  0.00    -0.000 C 
BRANCH  21  22
ATOM     22  C   UNL     1      20.964 -29.424  21.772  1.00  0.00    -0.000 C 
BRANCH  22  23
ATOM     23  C   UNL     1      21.273 -28.228  20.846  1.00  0.00    -0.000 C 
BRANCH  23  24
ATOM     24  C   UNL     1      20.034 -27.348  20.605  1.00  0.00    -0.000 C 
BRANCH  24  25
ATOM     25  C   UNL     1      20.393 -25.879  20.338  1.00  0.00    -0.003 C 
ATOM     26  C   UNL     1      21.872 -25.680  20.006  1.00  0.00     0.004 C 
ENDBRANCH  24  25
ENDBRANCH  23  24
ENDBRANCH  22  23
ENDBRANCH  21  22
ENDBRANCH  20  21
ENDBRANCH  19  20
ENDBRANCH  18  19
ENDBRANCH  17  18
ENDBRANCH  16  17
ENDBRANCH  15  16
ENDBRANCH   1  15
TORSDOF 22
ENDMDL
MODEL 2
REMARK VINA RESULT:    -4.911      3.264      5.437
REMARK INTER + INTRA:         -14.964
REMARK INTER:                 -11.174
REMARK INTRA:                  -3.790
REMARK UNBOUND:                -3.737
REMARK SMILES CCCCCCCCCCCCCCCCCCCCCCCC(=O)[O-]
REMARK SMILES IDX 13 1 14 2 15 3 16 4 17 5 18 6 19 7 20 8 21 9 22 10 23 11
REMARK SMILES IDX 24 12 25 13 26 14 12 15 11 16 10 17 9 18 8 19 7 20 6 21 5 22
REMARK SMILES IDX 4 23 3 24 2 25 1 26
REMARK H PARENT
REMARK Flexibility Score: inf
ROOT
ATOM      1  C   UNL     1      18.415 -36.859  21.805  1.00  0.00     0.000 C 
ENDROOT
BRANCH   1   2
ATOM      2  C   UNL     1      17.852 -36.835  20.367  1.00  0.00     0.000 C 
BRANCH   2   3
ATOM      3  C   UNL     1      17.994 -35.472  19.663  1.00  0.00     0.000 C 
BRANCH   3   4
ATOM      4  C   UNL     1      16.701 -34.639  19.577  1.00  0.00     0.000 C 
BRANCH   4   5
ATOM      5  C   UNL     1      15.512 -35.186  20.390  1.00  0.00     0.000 C 
BRANCH   5   6
ATOM      6  C   UNL     1      14.948 -34.161  21.388  1.00  0.00     0.000 C 
BRANCH   6   7
ATOM      7  C   UNL     1      14.895 -32.737  20.809  1.00  0.00     0.000 C 
BRANCH   7   8
ATOM      8  C   UNL     1      13.855 -31.850  21.510  1.00  0.00     0.000 C 
BRANCH   8   9
ATOM      9  C   UNL     1      14.227 -30.365  21.385  1.00  0.00     0.000 C 
BRANCH   9  10
ATOM     10  C   UNL     1      14.299 -29.698  22.764  1.00  0.00     0.006 C 
BRANCH  10  11
ATOM     11  C   UNL     1      13.091 -30.082  23.625  1.00  0.00     0.053 C 
BRANCH  11  12
ATOM     12  C   UNL     1      12.300 -28.867  23.989  1.00  0.00     0.041 C 
ATOM     13  O   UNL     1      12.699 -28.102  24.907  1.00  0.00    -0.550 OA
ATOM     14  O   UNL     1      11.148 -28.549  23.281  1.00  0.00    -0.550 OA
ENDBRANCH  11  12
ENDBRANCH  10  11
ENDBRANCH   9  10
ENDBRANCH   8   9
ENDBRANCH   7   8
ENDBRANCH   6   7
ENDBRANCH   5   6
ENDBRANCH   4   5
ENDBRANCH   3   4
ENDBRANCH   2   3
ENDBRANCH   1   2
BRANCH   1  15
ATOM     15  C   UNL     1      18.695 -35.452  22.359  1.00  0.00     0.000 C 
BRANCH  15  16
ATOM     16  C   UNL     1      17.688 -35.027  23.443  1.00  0.00     0.000 C 
BRANCH  16  17
ATOM     17  C   UNL     1      18.069 -33.716  24.163  1.00  0.00     0.000 C 
BRANCH  17  18
ATOM     18  C   UNL     1      17.152 -32.548  23.759  1.00  0.00    -0.000 C 
BRANCH  18  19
ATOM     19  C   UNL     1      17.932 -31.283  23.368  1.00  0.00    -0.000 C 
BRANCH  19  20
ATOM     20  C   UNL     1      17.724 -30.887  21.897  1.00  0.00    -0.000 C 
BRANCH  20  21
ATOM     21  C   UNL     1      18.554 -31.783  20.967  1.00  0.00    -0.000 C 
BRANCH  21  22
ATOM     22  C   UNL     1      20.002 -31.974  21.451  1.00  0.00    -0.000 C 
BRANCH  22  23
ATOM     23  C   UNL     1      21.010 -31.028  20.763  1.00  0.00    -0.000 C 
BRANCH  23  24
ATOM     24  C   UNL     1      21.233 -29.736  21.568  1.00  0.00    -0.000 C 
BRANCH  24  25
ATOM     25  C   UNL     1      21.142 -28.473  20.698  1.00  0.00    -0.003 C 
ATOM     26  C   UNL     1      19.804 -27.747  20.842  1.00  0.00     0.004 C 
ENDBRANCH  24  25
ENDBRANCH  23  24
ENDBRANCH  22  23
ENDBRANCH  21  22
ENDBRANCH  20  21
ENDBRANCH  19  20
ENDBRANCH  18  19
ENDBRANCH  17  18
ENDBRANCH  16  17
ENDBRANCH  15  16
ENDBRANCH   1  15
TORSDOF 22
ENDMDL
MODEL 3
REMARK VINA RESULT:    -4.905      3.296      6.954
REMARK INTER + INTRA:         -14.951
REMARK INTER:                 -11.504
REMARK INTRA:                  -3.447
REMARK UNBOUND:                -3.737
REMARK SMILES CCCCCCCCCCCCCCCCCCCCCCCC(=O)[O-]
REMARK SMILES IDX 13 1 14 2 15 3 16 4 17 5 18 6 19 7 20 8 21 9 22 10 23 11
REMARK SMILES IDX 24 12 25 13 26 14 12 15 11 16 10 17 9 18 8 19 7 20 6 21 5 22
REMARK SMILES IDX 4 23 3 24 2 25 1 26
REMARK H PARENT
REMARK Flexibility Score: inf
ROOT
ATOM      1  C   UNL     1      13.306 -31.522  22.158  1.00  0.00     0.000 C 
ENDROOT
BRANCH   1   2
ATOM      2  C   UNL     1      14.259 -30.891  21.119  1.00  0.00     0.000 C 
BRANCH   2   3
ATOM      3  C   UNL     1      15.483 -30.192  21.739  1.00  0.00     0.000 C 
BRANCH   3   4
ATOM      4  C   UNL     1      16.805 -30.978  21.648  1.00  0.00     0.000 C 
BRANCH   4   5
ATOM      5  C   UNL     1      17.641 -31.008  22.943  1.00  0.00     0.000 C 
BRANCH   5   6
ATOM      6  C   UNL     1      18.987 -31.733  22.769  1.00  0.00     0.000 C 
BRANCH   6   7
ATOM      7  C   UNL     1      19.336 -31.989  21.294  1.00  0.00     0.000 C 
BRANCH   7   8
ATOM      8  C   UNL     1      20.694 -31.392  20.893  1.00  0.00     0.000 C 
BRANCH   8   9
ATOM      9  C   UNL     1      20.966 -30.087  21.655  1.00  0.00     0.000 C 
BRANCH   9  10
ATOM     10  C   UNL     1      21.215 -28.925  20.687  1.00  0.00     0.006 C 
BRANCH  10  11
ATOM     11  C   UNL     1      20.178 -27.815  20.883  1.00  0.00     0.053 C 
BRANCH  11  12
ATOM     12  C   UNL     1      20.767 -26.482  20.545  1.00  0.00     0.041 C 
ATOM     13  O   UNL     1      21.966 -26.395  20.170  1.00  0.00    -0.550 OA
ATOM     14  O   UNL     1      19.977 -25.341  20.594  1.00  0.00    -0.550 OA
ENDBRANCH  11  12
ENDBRANCH  10  11
ENDBRANCH   9  10
ENDBRANCH   8   9
ENDBRANCH   7   8
ENDBRANCH   6   7
ENDBRANCH   5   6
ENDBRANCH   4   5
ENDBRANCH   3   4
ENDBRANCH   2   3
ENDBRANCH   1   2
BRANCH   1  15
ATOM     15  C   UNL     1      13.795 -31.339  23.604  1.00  0.00     0.000 C 
BRANCH  15  16
ATOM     16  C   UNL     1      13.962 -32.674  24.351  1.00  0.00     0.000 C 
BRANCH  16  17
ATOM     17  C   UNL     1      15.010 -33.613  23.713  1.00  0.00     0.000 C 
BRANCH  17  18
ATOM     18  C   UNL     1      16.138 -33.969  24.697  1.00  0.00    -0.000 C 
BRANCH  18  19
ATOM     19  C   UNL     1      16.982 -35.166  24.231  1.00  0.00    -0.000 C 
BRANCH  19  20
ATOM     20  C   UNL     1      17.442 -35.037  22.770  1.00  0.00    -0.000 C 
BRANCH  20  21
ATOM     21  C   UNL     1      18.584 -36.018  22.468  1.00  0.00    -0.000 C 
BRANCH  21  22
ATOM     22  C   UNL     1      18.239 -37.018  21.352  1.00  0.00    -0.000 C 
BRANCH  22  23
ATOM     23  C   UNL     1      17.250 -36.458  20.306  1.00  0.00    -0.000 C 
BRANCH  23  24
ATOM     24  C   UNL     1      17.907 -35.405  19.396  1.00  0.00    -0.000 C 
BRANCH  24  25
ATOM     25  C   UNL     1      17.041 -34.148  19.225  1.00  0.00    -0.003 C 
ATOM     26  C   UNL     1      15.635 -34.311  19.802  1.00  0.00     0.004 C 
ENDBRANCH  24  25
ENDBRANCH  23  24
ENDBRANCH  22  23
ENDBRANCH  21  22
ENDBRANCH  20  21
ENDBRANCH  19  20
ENDBRANCH  18  19
ENDBRANCH  17  18
ENDBRANCH  16  17
ENDBRANCH  15  16
ENDBRANCH   1  15
TORSDOF 22
ENDMDL
MODEL 4
REMARK VINA RESULT:    -4.890      2.306      4.739
REMARK INTER + INTRA:         -14.916
REMARK INTER:                 -10.994
REMARK INTRA:                  -3.923
REMARK UNBOUND:                -3.737
REMARK SMILES CCCCCCCCCCCCCCCCCCCCCCCC(=O)[O-]
REMARK SMILES IDX 13 1 14 2 15 3 16 4 17 5 18 6 19 7 20 8 21 9 22 10 23 11
REMARK SMILES IDX 24 12 25 13 26 14 12 15 11 16 10 17 9 18 8 19 7 20 6 21 5 22
REMARK SMILES IDX 4 23 3 24 2 25 1 26
REMARK H PARENT
REMARK Flexibility Score: inf
ROOT
ATOM      1  C   UNL     1      15.013 -33.621  22.959  1.00  0.00     0.000 C 
ENDROOT
BRANCH   1   2
ATOM      2  C   UNL     1      16.232 -34.456  23.407  1.00  0.00     0.000 C 
BRANCH   2   3
ATOM      3  C   UNL     1      17.003 -33.849  24.595  1.00  0.00     0.000 C 
BRANCH   3   4
ATOM      4  C   UNL     1      17.836 -34.850  25.418  1.00  0.00     0.000 C 
BRANCH   4   5
ATOM      5  C   UNL     1      17.161 -36.212  25.674  1.00  0.00     0.000 C 
BRANCH   5   6
ATOM      6  C   UNL     1      18.171 -37.334  25.967  1.00  0.00     0.000 C 
BRANCH   6   7
ATOM      7  C   UNL     1      19.481 -37.174  25.178  1.00  0.00     0.000 C 
BRANCH   7   8
ATOM      8  C   UNL     1      19.434 -37.858  23.803  1.00  0.00     0.000 C 
BRANCH   8   9
ATOM      9  C   UNL     1      19.509 -36.824  22.672  1.00  0.00     0.000 C 
BRANCH   9  10
ATOM     10  C   UNL     1      18.390 -37.044  21.648  1.00  0.00     0.006 C 
BRANCH  10  11
ATOM     11  C   UNL     1      18.204 -35.809  20.761  1.00  0.00     0.053 C 
BRANCH  11  12
ATOM     12  C   UNL     1      17.090 -36.026  19.787  1.00  0.00     0.041 C 
ATOM     13  O   UNL     1      17.102 -37.027  19.023  1.00  0.00    -0.550 OA
ATOM     14  O   UNL     1      16.012 -35.150  19.757  1.00  0.00    -0.550 OA
ENDBRANCH  11  12
ENDBRANCH  10  11
ENDBRANCH   9  10
ENDBRANCH   8   9
ENDBRANCH   7   8
ENDBRANCH   6   7
ENDBRANCH   5   6
ENDBRANCH   4   5
ENDBRANCH   3   4
ENDBRANCH   2   3
ENDBRANCH   1   2
BRANCH   1  15
ATOM     15  C   UNL     1      14.339 -32.876  24.124  1.00  0.00     0.000 C 
BRANCH  15  16
ATOM     16  C   UNL     1      13.959 -31.429  23.766  1.00  0.00     0.000 C 
BRANCH  16  17
ATOM     17  C   UNL     1      14.815 -30.826  22.631  1.00  0.00     0.000 C 
BRANCH  17  18
ATOM     18  C   UNL     1      16.082 -30.137  23.168  1.00  0.00    -0.000 C 
BRANCH  18  19
ATOM     19  C   UNL     1      17.378 -30.766  22.633  1.00  0.00    -0.000 C 
BRANCH  19  20
ATOM     20  C   UNL     1      17.231 -31.303  21.201  1.00  0.00    -0.000 C 
BRANCH  20  21
ATOM     21  C   UNL     1      18.474 -32.103  20.787  1.00  0.00    -0.000 C 
BRANCH  21  22
ATOM     22  C   UNL     1      19.314 -32.574  21.987  1.00  0.00    -0.000 C 
BRANCH  22  23
ATOM     23  C   UNL     1      20.803 -32.180  21.888  1.00  0.00    -0.000 C 
BRANCH  23  24
ATOM     24  C   UNL     1      21.020 -30.965  20.968  1.00  0.00    -0.000 C 
BRANCH  24  25
ATOM     25  C   UNL     1      20.923 -29.629  21.719  1.00  0.00    -0.003 C 
ATOM     26  C   UNL     1      21.068 -28.417  20.798  1.00  0.00     0.004 C 
ENDBRANCH  24  25
ENDBRANCH  23  24
ENDBRANCH  22  23
ENDBRANCH  21  22
ENDBRANCH  20  21
ENDBRANCH  19  20
ENDBRANCH  18  19
ENDBRANCH  17  18
ENDBRANCH  16  17
ENDBRANCH  15  16
ENDBRANCH   1  15
TORSDOF 22
ENDMDL
MODEL 5
REMARK VINA RESULT:    -4.883      3.075      7.450
REMARK INTER + INTRA:         -14.900
REMARK INTER:                 -10.874
REMARK INTRA:                  -4.026
REMARK UNBOUND:                -3.737
REMARK SMILES CCCCCCCCCCCCCCCCCCCCCCCC(=O)[O-]
REMARK SMILES IDX 13 1 14 2 15 3 16 4 17 5 18 6 19 7 20 8 21 9 22 10 23 11
REMARK SMILES IDX 24 12 25 13 26 14 12 15 11 16 10 17 9 18 8 19 7 20 6 21 5 22
REMARK SMILES IDX 4 23 3 24 2 25 1 26
REMARK H PARENT
REMARK Flexibility Score: inf
ROOT
ATOM      1  C   UNL     1      18.030 -37.357  21.002  1.00  0.00     0.000 C 
ENDROOT
BRANCH   1   2
ATOM      2  C   UNL     1      18.744 -36.456  22.034  1.00  0.00     0.000 C 
BRANCH   2   3
ATOM      3  C   UNL     1      19.363 -35.182  21.428  1.00  0.00     0.000 C 
BRANCH   3   4
ATOM      4  C   UNL     1      19.931 -34.178  22.448  1.00  0.00     0.000 C 
BRANCH   4   5
ATOM      5  C   UNL     1      19.778 -32.693  22.063  1.00  0.00     0.000 C 
BRANCH   5   6
ATOM      6  C   UNL     1      18.949 -32.490  20.784  1.00  0.00     0.000 C 
BRANCH   6   7
ATOM      7  C   UNL     1      18.297 -31.099  20.715  1.00  0.00     0.000 C 
BRANCH   7   8
ATOM      8  C   UNL     1      17.072 -30.970  21.634  1.00  0.00     0.000 C 
BRANCH   8   9
ATOM      9  C   UNL     1      16.685 -29.498  21.830  1.00  0.00     0.000 C 
BRANCH   9  10
ATOM     10  C   UNL     1      15.169 -29.345  21.999  1.00  0.00     0.006 C 
BRANCH  10  11
ATOM     11  C   UNL     1      14.554 -30.606  22.615  1.00  0.00     0.053 C 
BRANCH  11  12
ATOM     12  C   UNL     1      13.313 -30.996  21.878  1.00  0.00     0.041 C 
ATOM     13  O   UNL     1      13.388 -31.468  20.713  1.00  0.00    -0.550 OA
ATOM     14  O   UNL     1      12.074 -30.888  22.498  1.00  0.00    -0.550 OA
ENDBRANCH  11  12
ENDBRANCH  10  11
ENDBRANCH   9  10
ENDBRANCH   8   9
ENDBRANCH   7   8
ENDBRANCH   6   7
ENDBRANCH   5   6
ENDBRANCH   4   5
ENDBRANCH   3   4
ENDBRANCH   2   3
ENDBRANCH   1   2
BRANCH   1  15
ATOM     15  C   UNL     1      17.658 -36.608  19.712  1.00  0.00     0.000 C 
BRANCH  15  16
ATOM     16  C   UNL     1      16.224 -36.052  19.737  1.00  0.00     0.000 C 
BRANCH  16  17
ATOM     17  C   UNL     1      16.156 -34.519  19.910  1.00  0.00     0.000 C 
BRANCH  17  18
ATOM     18  C   UNL     1      15.330 -34.114  21.143  1.00  0.00    -0.000 C 
BRANCH  18  19
ATOM     19  C   UNL     1      15.888 -34.691  22.453  1.00  0.00    -0.000 C 
BRANCH  19  20
ATOM     20  C   UNL     1      15.584 -33.805  23.672  1.00  0.00    -0.000 C 
BRANCH  20  21
ATOM     21  C   UNL     1      16.882 -33.349  24.353  1.00  0.00    -0.000 C 
BRANCH  21  22
ATOM     22  C   UNL     1      17.207 -34.151  25.626  1.00  0.00    -0.000 C 
BRANCH  22  23
ATOM     23  C   UNL     1      18.506 -34.979  25.517  1.00  0.00    -0.000 C 
BRANCH  23  24
ATOM     24  C   UNL     1      18.278 -36.460  25.864  1.00  0.00    -0.000 C 
BRANCH  24  25
ATOM     25  C   UNL     1      16.799 -36.788  26.115  1.00  0.00    -0.003 C 
ATOM     26  C   UNL     1      16.602 -37.876  27.172  1.00  0.00     0.004 C 
ENDBRANCH  24  25
ENDBRANCH  23  24
ENDBRANCH  22  23
ENDBRANCH  21  22
ENDBRANCH  20  21
ENDBRANCH  19  20
ENDBRANCH  18  19
ENDBRANCH  17  18
ENDBRANCH  16  17
ENDBRANCH  15  16
ENDBRANCH   1  15
TORSDOF 22
ENDMDL
MODEL 6
REMARK VINA RESULT:    -4.823      2.822      6.302
REMARK INTER + INTRA:         -14.763
REMARK INTER:                 -10.847
REMARK INTRA:                  -3.915
REMARK UNBOUND:                -3.737
REMARK SMILES CCCCCCCCCCCCCCCCCCCCCCCC(=O)[O-]
REMARK SMILES IDX 13 1 14 2 15 3 16 4 17 5 18 6 19 7 20 8 21 9 22 10 23 11
REMARK SMILES IDX 24 12 25 13 26 14 12 15 11 16 10 17 9 18 8 19 7 20 6 21 5 22
REMARK SMILES IDX 4 23 3 24 2 25 1 26
REMARK H PARENT
REMARK Flexibility Score: inf
ROOT
ATOM      1  C   UNL     1      13.127 -31.576  20.786  1.00  0.00     0.000 C 
ENDROOT
BRANCH   1   2
ATOM      2  C   UNL     1      13.349 -31.436  22.308  1.00  0.00     0.000 C 
BRANCH   2   3
ATOM      3  C   UNL     1      13.132 -30.008  22.842  1.00  0.00     0.000 C 
BRANCH   3   4
ATOM      4  C   UNL     1      14.416 -29.247  23.223  1.00  0.00     0.000 C 
BRANCH   4   5
ATOM      5  C   UNL     1      15.496 -29.190  22.124  1.00  0.00     0.000 C 
BRANCH   5   6
ATOM      6  C   UNL     1      16.742 -30.024  22.466  1.00  0.00     0.000 C 
BRANCH   6   7
ATOM      7  C   UNL     1      17.099 -31.036  21.365  1.00  0.00     0.000 C 
BRANCH   7   8
ATOM      8  C   UNL     1      18.087 -32.110  21.843  1.00  0.00     0.000 C 
BRANCH   8   9
ATOM      9  C   UNL     1      19.267 -32.243  20.870  1.00  0.00     0.000 C 
BRANCH   9  10
ATOM     10  C   UNL     1      20.567 -31.743  21.510  1.00  0.00     0.006 C 
BRANCH  10  11
ATOM     11  C   UNL     1      21.175 -30.595  20.697  1.00  0.00     0.053 C 
BRANCH  11  12
ATOM     12  C   UNL     1      20.880 -29.281  21.347  1.00  0.00     0.041 C 
ATOM     13  O   UNL     1      21.729 -28.744  22.107  1.00  0.00    -0.550 OA
ATOM     14  O   UNL     1      19.688 -28.622  21.075  1.00  0.00    -0.550 OA
ENDBRANCH  11  12
ENDBRANCH  10  11
ENDBRANCH   9  10
ENDBRANCH   8   9
ENDBRANCH   7   8
ENDBRANCH   6   7
ENDBRANCH   5   6
ENDBRANCH   4   5
ENDBRANCH   3   4
ENDBRANCH   2   3
ENDBRANCH   1   2
BRANCH   1  15
ATOM     15  C   UNL     1      13.864 -32.784  20.184  1.00  0.00     0.000 C 
BRANCH  15  16
ATOM     16  C   UNL     1      14.726 -33.532  21.216  1.00  0.00     0.000 C 
BRANCH  16  17
ATOM     17  C   UNL     1      15.411 -34.796  20.651  1.00  0.00     0.000 C 
BRANCH  17  18
ATOM     18  C   UNL     1      16.300 -34.476  19.437  1.00  0.00    -0.000 C 
BRANCH  18  19
ATOM     19  C   UNL     1      17.640 -35.228  19.463  1.00  0.00    -0.000 C 
BRANCH  19  20
ATOM     20  C   UNL     1      17.741 -36.224  20.629  1.00  0.00    -0.000 C 
BRANCH  20  21
ATOM     21  C   UNL     1      18.752 -35.736  21.677  1.00  0.00    -0.000 C 
BRANCH  21  22
ATOM     22  C   UNL     1      18.460 -36.272  23.090  1.00  0.00    -0.000 C 
BRANCH  22  23
ATOM     23  C   UNL     1      19.144 -35.458  24.210  1.00  0.00    -0.000 C 
BRANCH  23  24
ATOM     24  C   UNL     1      18.225 -34.356  24.767  1.00  0.00    -0.000 C 
BRANCH  24  25
ATOM     25  C   UNL     1      16.743 -34.759  24.755  1.00  0.00    -0.003 C 
ATOM     26  C   UNL     1      15.814 -33.598  24.402  1.00  0.00     0.004 C 
ENDBRANCH  24  25
ENDBRANCH  23  24
ENDBRANCH  22  23
ENDBRANCH  21  22
ENDBRANCH  20  21
ENDBRANCH  19  20
ENDBRANCH  18  19
ENDBRANCH  17  18
ENDBRANCH  16  17
ENDBRANCH  15  16
ENDBRANCH   1  15
TORSDOF 22
ENDMDL
MODEL 7
REMARK VINA RESULT:    -4.813      3.301      7.412
REMARK INTER + INTRA:         -14.739
REMARK INTER:                 -11.338
REMARK INTRA:                  -3.401
REMARK UNBOUND:                -3.737
REMARK SMILES CCCCCCCCCCCCCCCCCCCCCCCC(=O)[O-]
REMARK SMILES IDX 13 1 14 2 15 3 16 4 17 5 18 6 19 7 20 8 21 9 22 10 23 11
REMARK SMILES IDX 24 12 25 13 26 14 12 15 11 16 10 17 9 18 8 19 7 20 6 21 5 22
REMARK SMILES IDX 4 23 3 24 2 25 1 26
REMARK H PARENT
REMARK Flexibility Score: inf
ROOT
ATOM      1  C   UNL     1      14.107 -29.961  23.204  1.00  0.00     0.000 C 
ENDROOT
BRANCH   1   2
ATOM      2  C   UNL     1      15.462 -29.606  22.554  1.00  0.00     0.000 C 
BRANCH   2   3
ATOM      3  C   UNL     1      16.666 -30.328  23.188  1.00  0.00     0.000 C 
BRANCH   3   4
ATOM      4  C   UNL     1      17.135 -31.597  22.450  1.00  0.00     0.000 C 
BRANCH   4   5
ATOM      5  C   UNL     1      17.678 -31.365  21.026  1.00  0.00     0.000 C 
BRANCH   5   6
ATOM      6  C   UNL     1      19.088 -31.944  20.822  1.00  0.00     0.000 C 
BRANCH   6   7
ATOM      7  C   UNL     1      19.999 -31.733  22.043  1.00  0.00     0.000 C 
BRANCH   7   8
ATOM      8  C   UNL     1      21.388 -31.200  21.661  1.00  0.00     0.000 C 
BRANCH   8   9
ATOM      9  C   UNL     1      21.535 -29.722  22.048  1.00  0.00     0.000 C 
BRANCH   9  10
ATOM     10  C   UNL     1      21.145 -28.806  20.881  1.00  0.00     0.006 C 
BRANCH  10  11
ATOM     11  C   UNL     1      21.302 -27.331  21.263  1.00  0.00     0.053 C 
BRANCH  11  12
ATOM     12  C   UNL     1      22.199 -26.631  20.293  1.00  0.00     0.041 C 
ATOM     13  O   UNL     1      23.246 -27.193  19.878  1.00  0.00    -0.550 OA
ATOM     14  O   UNL     1      21.853 -25.376  19.808  1.00  0.00    -0.550 OA
ENDBRANCH  11  12
ENDBRANCH  10  11
ENDBRANCH   9  10
ENDBRANCH   8   9
ENDBRANCH   7   8
ENDBRANCH   6   7
ENDBRANCH   5   6
ENDBRANCH   4   5
ENDBRANCH   3   4
ENDBRANCH   2   3
ENDBRANCH   1   2
BRANCH   1  15
ATOM     15  C   UNL     1      13.594 -31.352  22.793  1.00  0.00     0.000 C 
BRANCH  15  16
ATOM     16  C   UNL     1      13.144 -31.411  21.323  1.00  0.00     0.000 C 
BRANCH  16  17
ATOM     17  C   UNL     1      13.859 -32.506  20.500  1.00  0.00     0.000 C 
BRANCH  17  18
ATOM     18  C   UNL     1      14.697 -33.440  21.390  1.00  0.00    -0.000 C 
BRANCH  18  19
ATOM     19  C   UNL     1      15.193 -34.690  20.645  1.00  0.00    -0.000 C 
BRANCH  19  20
ATOM     20  C   UNL     1      16.182 -34.356  19.517  1.00  0.00    -0.000 C 
BRANCH  20  21
ATOM     21  C   UNL     1      17.539 -35.031  19.762  1.00  0.00    -0.000 C 
BRANCH  21  22
ATOM     22  C   UNL     1      17.427 -36.326  20.585  1.00  0.00    -0.000 C 
BRANCH  22  23
ATOM     23  C   UNL     1      18.411 -36.387  21.774  1.00  0.00    -0.000 C 
BRANCH  23  24
ATOM     24  C   UNL     1      18.320 -35.136  22.665  1.00  0.00    -0.000 C 
BRANCH  24  25
ATOM     25  C   UNL     1      17.213 -35.244  23.725  1.00  0.00    -0.003 C 
ATOM     26  C   UNL     1      17.402 -34.264  24.883  1.00  0.00     0.004 C 
ENDBRANCH  24  25
ENDBRANCH  23  24
ENDBRANCH  22  23
ENDBRANCH  21  22
ENDBRANCH  20  21
ENDBRANCH  19  20
ENDBRANCH  18  19
ENDBRANCH  17  18
ENDBRANCH  16  17
ENDBRANCH  15  16
ENDBRANCH   1  15
TORSDOF 22
ENDMDL
MODEL 8
REMARK VINA RESULT:    -4.803      2.761      6.848
REMARK INTER + INTRA:         -14.716
REMARK INTER:                 -11.267
REMARK INTRA:                  -3.449
REMARK UNBOUND:                -3.737
REMARK SMILES CCCCCCCCCCCCCCCCCCCCCCCC(=O)[O-]
REMARK SMILES IDX 13 1 14 2 15 3 16 4 17 5 18 6 19 7 20 8 21 9 22 10 23 11
REMARK SMILES IDX 24 12 25 13 26 14 12 15 11 16 10 17 9 18 8 19 7 20 6 21 5 22
REMARK SMILES IDX 4 23 3 24 2 25 1 26
REMARK H PARENT
REMARK Flexibility Score: inf
ROOT
ATOM      1  C   UNL     1      18.887 -35.957  21.609  1.00  0.00     0.000 C 
ENDROOT
BRANCH   1   2
ATOM      2  C   UNL     1      18.911 -36.015  23.152  1.00  0.00     0.000 C 
BRANCH   2   3
ATOM      3  C   UNL     1      17.618 -35.505  23.816  1.00  0.00     0.000 C 
BRANCH   3   4
ATOM      4  C   UNL     1      17.804 -34.848  25.197  1.00  0.00     0.000 C 
BRANCH   4   5
ATOM      5  C   UNL     1      17.625 -33.317  25.224  1.00  0.00     0.000 C 
BRANCH   5   6
ATOM      6  C   UNL     1      17.358 -32.721  23.832  1.00  0.00     0.000 C 
BRANCH   6   7
ATOM      7  C   UNL     1      18.646 -32.267  23.125  1.00  0.00     0.000 C 
BRANCH   7   8
ATOM      8  C   UNL     1      18.480 -32.156  21.602  1.00  0.00     0.000 C 
BRANCH   8   9
ATOM      9  C   UNL     1      17.505 -31.029  21.236  1.00  0.00     0.000 C 
BRANCH   9  10
ATOM     10  C   UNL     1      17.995 -29.680  21.776  1.00  0.00     0.006 C 
BRANCH  10  11
ATOM     11  C   UNL     1      18.730 -28.887  20.690  1.00  0.00     0.053 C 
BRANCH  11  12
ATOM     12  C   UNL     1      20.151 -28.647  21.088  1.00  0.00     0.041 C 
ATOM     13  O   UNL     1      20.903 -29.617  21.373  1.00  0.00    -0.550 OA
ATOM     14  O   UNL     1      20.662 -27.356  21.096  1.00  0.00    -0.550 OA
ENDBRANCH  11  12
ENDBRANCH  10  11
ENDBRANCH   9  10
ENDBRANCH   8   9
ENDBRANCH   7   8
ENDBRANCH   6   7
ENDBRANCH   5   6
ENDBRANCH   4   5
ENDBRANCH   3   4
ENDBRANCH   2   3
ENDBRANCH   1   2
BRANCH   1  15
ATOM     15  C   UNL     1      17.990 -37.040  20.986  1.00  0.00     0.000 C 
BRANCH  15  16
ATOM     16  C   UNL     1      17.296 -36.570  19.695  1.00  0.00     0.000 C 
BRANCH  16  17
ATOM     17  C   UNL     1      17.374 -35.044  19.470  1.00  0.00     0.000 C 
BRANCH  17  18
ATOM     18  C   UNL     1      16.012 -34.360  19.681  1.00  0.00    -0.000 C 
BRANCH  18  19
ATOM     19  C   UNL     1      15.413 -34.636  21.070  1.00  0.00    -0.000 C 
BRANCH  19  20
ATOM     20  C   UNL     1      14.722 -33.403  21.675  1.00  0.00    -0.000 C 
BRANCH  20  21
ATOM     21  C   UNL     1      13.956 -32.623  20.597  1.00  0.00    -0.000 C 
BRANCH  21  22
ATOM     22  C   UNL     1      13.464 -31.249  21.085  1.00  0.00    -0.000 C 
BRANCH  22  23
ATOM     23  C   UNL     1      13.391 -31.131  22.623  1.00  0.00    -0.000 C 
BRANCH  23  24
ATOM     24  C   UNL     1      13.784 -29.727  23.114  1.00  0.00    -0.000 C 
BRANCH  24  25
ATOM     25  C   UNL     1      12.761 -29.136  24.096  1.00  0.00    -0.003 C 
ATOM     26  C   UNL     1      12.851 -27.614  24.204  1.00  0.00     0.004 C 
ENDBRANCH  24  25
ENDBRANCH  23  24
ENDBRANCH  22  23
ENDBRANCH  21  22
ENDBRANCH  20  21
ENDBRANCH  19  20
ENDBRANCH  18  19
ENDBRANCH  17  18
ENDBRANCH  16  17
ENDBRANCH  15  16
ENDBRANCH   1  15
TORSDOF 22
ENDMDL
MODEL 9
REMARK VINA RESULT:    -4.736      3.112      6.693
REMARK INTER + INTRA:         -14.564
REMARK INTER:                 -10.326
REMARK INTRA:                  -4.238
REMARK UNBOUND:                -3.737
REMARK SMILES CCCCCCCCCCCCCCCCCCCCCCCC(=O)[O-]
REMARK SMILES IDX 13 1 14 2 15 3 16 4 17 5 18 6 19 7 20 8 21 9 22 10 23 11
REMARK SMILES IDX 24 12 25 13 26 14 12 15 11 16 10 17 9 18 8 19 7 20 6 21 5 22
REMARK SMILES IDX 4 23 3 24 2 25 1 26
REMARK H PARENT
REMARK Flexibility Score: inf
ROOT
ATOM      1  C   UNL     1      17.970 -33.447  19.898  1.00  0.00     0.000 C 
ENDROOT
BRANCH   1   2
ATOM      2  C   UNL     1      16.453 -33.703  20.033  1.00  0.00     0.000 C 
BRANCH   2   3
ATOM      3  C   UNL     1      16.091 -35.173  20.315  1.00  0.00     0.000 C 
BRANCH   3   4
ATOM      4  C   UNL     1      17.018 -36.216  19.660  1.00  0.00     0.000 C 
BRANCH   4   5
ATOM      5  C   UNL     1      17.841 -37.071  20.643  1.00  0.00     0.000 C 
BRANCH   5   6
ATOM      6  C   UNL     1      18.063 -36.378  21.998  1.00  0.00     0.000 C 
BRANCH   6   7
ATOM      7  C   UNL     1      19.535 -36.406  22.443  1.00  0.00     0.000 C 
BRANCH   7   8
ATOM      8  C   UNL     1      20.171 -35.008  22.479  1.00  0.00     0.000 C 
BRANCH   8   9
ATOM      9  C   UNL     1      20.360 -34.528  23.925  1.00  0.00     0.000 C 
BRANCH   9  10
ATOM     10  C   UNL     1      20.794 -33.058  23.964  1.00  0.00     0.006 C 
BRANCH  10  11
ATOM     11  C   UNL     1      21.275 -32.589  22.587  1.00  0.00     0.053 C 
BRANCH  11  12
ATOM     12  C   UNL     1      21.735 -31.167  22.649  1.00  0.00     0.041 C 
ATOM     13  O   UNL     1      21.188 -30.291  21.928  1.00  0.00    -0.550 OA
ATOM     14  O   UNL     1      22.735 -30.799  23.540  1.00  0.00    -0.550 OA
ENDBRANCH  11  12
ENDBRANCH  10  11
ENDBRANCH   9  10
ENDBRANCH   8   9
ENDBRANCH   7   8
ENDBRANCH   6   7
ENDBRANCH   5   6
ENDBRANCH   4   5
ENDBRANCH   3   4
ENDBRANCH   2   3
ENDBRANCH   1   2
BRANCH   1  15
ATOM     15  C   UNL     1      18.426 -32.167  20.618  1.00  0.00     0.000 C 
BRANCH  15  16
ATOM     16  C   UNL     1      17.310 -31.528  21.462  1.00  0.00     0.000 C 
BRANCH  16  17
ATOM     17  C   UNL     1      17.773 -31.077  22.864  1.00  0.00     0.000 C 
BRANCH  17  18
ATOM     18  C   UNL     1      17.021 -31.817  23.985  1.00  0.00    -0.000 C 
BRANCH  18  19
ATOM     19  C   UNL     1      16.929 -33.332  23.744  1.00  0.00    -0.000 C 
BRANCH  19  20
ATOM     20  C   UNL     1      15.479 -33.837  23.678  1.00  0.00    -0.000 C 
BRANCH  20  21
ATOM     21  C   UNL     1      14.489 -32.666  23.756  1.00  0.00    -0.000 C 
BRANCH  21  22
ATOM     22  C   UNL     1      13.946 -32.243  22.380  1.00  0.00    -0.000 C 
BRANCH  22  23
ATOM     23  C   UNL     1      13.338 -30.824  22.368  1.00  0.00    -0.000 C 
BRANCH  23  24
ATOM     24  C   UNL     1      13.575 -30.082  23.695  1.00  0.00    -0.000 C 
BRANCH  24  25
ATOM     25  C   UNL     1      13.191 -28.596  23.619  1.00  0.00    -0.003 C 
ATOM     26  C   UNL     1      11.729 -28.340  23.983  1.00  0.00     0.004 C 
ENDBRANCH  24  25
ENDBRANCH  23  24
ENDBRANCH  22  23
ENDBRANCH  21  22
ENDBRANCH  20  21
ENDBRANCH  19  20
ENDBRANCH  18  19
ENDBRANCH  17  18
ENDBRANCH  16  17
ENDBRANCH  15  16
ENDBRANCH   1  15
TORSDOF 22
ENDMDL
