MODEL 1
REMARK VINA RESULT:    -4.212      0.000      0.000
REMARK INTER + INTRA:          -7.704
REMARK INTER:                  -6.675
REMARK INTRA:                  -1.029
REMARK UNBOUND:                -1.029
REMARK SMILES CCCCCCCCCCCC(=O)[O-]
REMARK SMILES IDX 7 1 8 2 9 3 10 4 11 5 12 6 13 7 14 8 6 9 5 10 4 11 3 12 2 13
REMARK SMILES IDX 1 14
REMARK H PARENT
REMARK Flexibility Score: inf
ROOT
ATOM      1  C   UNL     1      44.650   8.599  19.598  1.00  0.00     0.000 C 
ENDROOT
BRANCH   1   2
ATOM      2  C   UNL     1      46.036   8.496  18.937  1.00  0.00     0.000 C 
BRANCH   2   3
ATOM      3  C   UNL     1      46.634   7.075  18.891  1.00  0.00     0.000 C 
BRANCH   3   4
ATOM      4  C   UNL     1      46.849   6.502  17.476  1.00  0.00     0.006 C 
BRANCH   4   5
ATOM      5  C   UNL     1      46.511   7.478  16.338  1.00  0.00     0.053 C 
BRANCH   5   6
ATOM      6  C   UNL     1      45.240   7.104  15.640  1.00  0.00     0.041 C 
ATOM      7  O   UNL     1      44.223   7.840  15.736  1.00  0.00    -0.550 OA
ATOM      8  O   UNL     1      45.188   5.958  14.856  1.00  0.00    -0.550 OA
ENDBRANCH   5   6
ENDBRANCH   4   5
ENDBRANCH   3   4
ENDBRANCH   2   3
ENDBRANCH   1   2
BRANCH   1   9
ATOM      9  C   UNL     1      44.664   9.432  20.887  1.00  0.00     0.000 C 
BRANCH   9  10
ATOM     10  C   UNL     1      44.393   8.548  22.114  1.00  0.00    -0.000 C 
BRANCH  10  11
ATOM     11  C   UNL     1      45.577   8.508  23.094  1.00  0.00    -0.000 C 
BRANCH  11  12
ATOM     12  C   UNL     1      46.907   9.038  22.525  1.00  0.00    -0.000 C 
BRANCH  12  13
ATOM     13  C   UNL     1      48.123   8.143  22.843  1.00  0.00    -0.003 C 
ATOM     14  C   UNL     1      48.013   6.759  22.204  1.00  0.00     0.004 C 
ENDBRANCH  12  13
ENDBRANCH  11  12
ENDBRANCH  10  11
ENDBRANCH   9  10
ENDBRANCH   1   9
TORSDOF 10
ENDMDL
MODEL 2
REMARK VINA RESULT:    -4.048      3.164      6.697
REMARK INTER + INTRA:          -7.443
REMARK INTER:                  -6.914
REMARK INTRA:                  -0.529
REMARK UNBOUND:                -1.029
REMARK SMILES CCCCCCCCCCCC(=O)[O-]
REMARK SMILES IDX 7 1 8 2 9 3 10 4 11 5 12 6 13 7 14 8 6 9 5 10 4 11 3 12 2 13
REMARK SMILES IDX 1 14
REMARK H PARENT
REMARK Flexibility Score: inf
ROOT
ATOM      1  C   UNL     1      46.149   8.260  19.742  1.00  0.00     0.000 C 
ENDROOT
BRANCH   1   2
ATOM      2  C   UNL     1      46.866   7.139  20.515  1.00  0.00     0.000 C 
BRANCH   2   3
ATOM      3  C   UNL     1      47.275   7.499  21.958  1.00  0.00     0.000 C 
BRANCH   3   4
ATOM      4  C   UNL     1      46.707   8.831  22.486  1.00  0.00     0.006 C 
BRANCH   4   5
ATOM      5  C   UNL     1      45.925   8.709  23.803  1.00  0.00     0.053 C 
BRANCH   5   6
ATOM      6  C   UNL     1      44.447   8.815  23.587  1.00  0.00     0.041 C 
ATOM      7  O   UNL     1      43.706   9.291  24.487  1.00  0.00    -0.550 OA
ATOM      8  O   UNL     1      43.890   8.418  22.377  1.00  0.00    -0.550 OA
ENDBRANCH   5   6
ENDBRANCH   4   5
ENDBRANCH   3   4
ENDBRANCH   2   3
ENDBRANCH   1   2
BRANCH   1   9
ATOM      9  C   UNL     1      45.598   7.793  18.387  1.00  0.00     0.000 C 
BRANCH   9  10
ATOM     10  C   UNL     1      46.569   6.814  17.709  1.00  0.00    -0.000 C 
BRANCH  10  11
ATOM     11  C   UNL     1      46.625   6.991  16.183  1.00  0.00    -0.000 C 
BRANCH  11  12
ATOM     12  C   UNL     1      45.461   6.340  15.412  1.00  0.00    -0.000 C 
BRANCH  12  13
ATOM     13  C   UNL     1      44.340   7.327  15.026  1.00  0.00    -0.003 C 
ATOM     14  C   UNL     1      43.330   6.715  14.054  1.00  0.00     0.004 C 
ENDBRANCH  12  13
ENDBRANCH  11  12
ENDBRANCH  10  11
ENDBRANCH   9  10
ENDBRANCH   1   9
TORSDOF 10
ENDMDL
MODEL 3
REMARK VINA RESULT:    -4.045      3.312      6.542
REMARK INTER + INTRA:          -7.439
REMARK INTER:                  -6.555
REMARK INTRA:                  -0.884
REMARK UNBOUND:                -1.029
REMARK SMILES CCCCCCCCCCCC(=O)[O-]
REMARK SMILES IDX 7 1 8 2 9 3 10 4 11 5 12 6 13 7 14 8 6 9 5 10 4 11 3 12 2 13
REMARK SMILES IDX 1 14
REMARK H PARENT
REMARK Flexibility Score: inf
ROOT
ATOM      1  C   UNL     1      44.796   7.955  17.609  1.00  0.00     0.000 C 
ENDROOT
BRANCH   1   2
ATOM      2  C   UNL     1      44.545   9.098  18.607  1.00  0.00     0.000 C 
BRANCH   2   3
ATOM      3  C   UNL     1      44.591   8.690  20.094  1.00  0.00     0.000 C 
BRANCH   3   4
ATOM      4  C   UNL     1      45.985   8.761  20.748  1.00  0.00     0.006 C 
BRANCH   4   5
ATOM      5  C   UNL     1      46.711   7.411  20.844  1.00  0.00     0.053 C 
BRANCH   5   6
ATOM      6  C   UNL     1      47.608   7.343  22.042  1.00  0.00     0.041 C 
ATOM      7  O   UNL     1      48.251   6.290  22.294  1.00  0.00    -0.550 OA
ATOM      8  O   UNL     1      47.759   8.454  22.862  1.00  0.00    -0.550 OA
ENDBRANCH   5   6
ENDBRANCH   4   5
ENDBRANCH   3   4
ENDBRANCH   2   3
ENDBRANCH   1   2
BRANCH   1   9
ATOM      9  C   UNL     1      46.250   7.898  17.119  1.00  0.00     0.000 C 
BRANCH   9  10
ATOM     10  C   UNL     1      46.732   6.445  16.997  1.00  0.00    -0.000 C 
BRANCH  10  11
ATOM     11  C   UNL     1      47.101   6.057  15.556  1.00  0.00    -0.000 C 
BRANCH  11  12
ATOM     12  C   UNL     1      46.112   6.545  14.481  1.00  0.00    -0.000 C 
BRANCH  12  13
ATOM     13  C   UNL     1      44.747   5.827  14.517  1.00  0.00    -0.003 C 
ATOM     14  C   UNL     1      43.584   6.764  14.192  1.00  0.00     0.004 C 
ENDBRANCH  12  13
ENDBRANCH  11  12
ENDBRANCH  10  11
ENDBRANCH   9  10
ENDBRANCH   1   9
TORSDOF 10
ENDMDL
MODEL 4
REMARK VINA RESULT:    -4.040      3.460      6.500
REMARK INTER + INTRA:          -7.431
REMARK INTER:                  -6.323
REMARK INTRA:                  -1.107
REMARK UNBOUND:                -1.029
REMARK SMILES CCCCCCCCCCCC(=O)[O-]
REMARK SMILES IDX 7 1 8 2 9 3 10 4 11 5 12 6 13 7 14 8 6 9 5 10 4 11 3 12 2 13
REMARK SMILES IDX 1 14
REMARK H PARENT
REMARK Flexibility Score: inf
ROOT
ATOM      1  C   UNL     1      46.149   6.647  16.831  1.00  0.00     0.000 C 
ENDROOT
BRANCH   1   2
ATOM      2  C   UNL     1      46.739   7.191  18.144  1.00  0.00     0.000 C 
BRANCH   2   3
ATOM      3  C   UNL     1      45.906   8.297  18.826  1.00  0.00     0.000 C 
BRANCH   3   4
ATOM      4  C   UNL     1      45.860   8.225  20.365  1.00  0.00     0.006 C 
BRANCH   4   5
ATOM      5  C   UNL     1      46.920   7.304  20.989  1.00  0.00     0.053 C 
BRANCH   5   6
ATOM      6  C   UNL     1      47.339   7.776  22.347  1.00  0.00     0.041 C 
ATOM      7  O   UNL     1      48.561   7.836  22.649  1.00  0.00    -0.550 OA
ATOM      8  O   UNL     1      46.382   8.181  23.270  1.00  0.00    -0.550 OA
ENDBRANCH   5   6
ENDBRANCH   4   5
ENDBRANCH   3   4
ENDBRANCH   2   3
ENDBRANCH   1   2
BRANCH   1   9
ATOM      9  C   UNL     1      44.751   7.206  16.528  1.00  0.00     0.000 C 
BRANCH   9  10
ATOM     10  C   UNL     1      44.575   7.455  15.023  1.00  0.00    -0.000 C 
BRANCH  10  11
ATOM     11  C   UNL     1      45.899   7.791  14.315  1.00  0.00    -0.000 C 
BRANCH  11  12
ATOM     12  C   UNL     1      46.145   9.294  14.082  1.00  0.00    -0.000 C 
BRANCH  12  13
ATOM     13  C   UNL     1      46.891   9.990  15.239  1.00  0.00    -0.003 C 
ATOM     14  C   UNL     1      45.954  10.801  16.135  1.00  0.00     0.004 C 
ENDBRANCH  12  13
ENDBRANCH  11  12
ENDBRANCH  10  11
ENDBRANCH   9  10
ENDBRANCH   1   9
TORSDOF 10
ENDMDL
MODEL 5
REMARK VINA RESULT:    -4.033      3.472      6.443
REMARK INTER + INTRA:          -7.420
REMARK INTER:                  -6.705
REMARK INTRA:                  -0.715
REMARK UNBOUND:                -1.029
REMARK SMILES CCCCCCCCCCCC(=O)[O-]
REMARK SMILES IDX 7 1 8 2 9 3 10 4 11 5 12 6 13 7 14 8 6 9 5 10 4 11 3 12 2 13
REMARK SMILES IDX 1 14
REMARK H PARENT
REMARK Flexibility Score: inf
ROOT
ATOM      1  C   UNL     1      44.184   8.310  17.689  1.00  0.00     0.000 C 
ENDROOT
BRANCH   1   2
ATOM      2  C   UNL     1      45.420   8.501  18.585  1.00  0.00     0.000 C 
BRANCH   2   3
ATOM      3  C   UNL     1      46.397   7.307  18.614  1.00  0.00     0.000 C 
BRANCH   3   4
ATOM      4  C   UNL     1      46.805   6.830  20.022  1.00  0.00     0.006 C 
BRANCH   4   5
ATOM      5  C   UNL     1      46.511   7.838  21.143  1.00  0.00     0.053 C 
BRANCH   5   6
ATOM      6  C   UNL     1      47.517   7.752  22.250  1.00  0.00     0.041 C 
ATOM      7  O   UNL     1      48.142   6.679  22.457  1.00  0.00    -0.550 OA
ATOM      8  O   UNL     1      47.789   8.869  23.030  1.00  0.00    -0.550 OA
ENDBRANCH   5   6
ENDBRANCH   4   5
ENDBRANCH   3   4
ENDBRANCH   2   3
ENDBRANCH   1   2
BRANCH   1   9
ATOM      9  C   UNL     1      44.457   7.401  16.482  1.00  0.00     0.000 C 
BRANCH   9  10
ATOM     10  C   UNL     1      45.061   8.202  15.319  1.00  0.00    -0.000 C 
BRANCH  10  11
ATOM     11  C   UNL     1      45.801   7.314  14.304  1.00  0.00    -0.000 C 
BRANCH  11  12
ATOM     12  C   UNL     1      46.008   5.855  14.751  1.00  0.00    -0.000 C 
BRANCH  12  13
ATOM     13  C   UNL     1      47.460   5.528  15.158  1.00  0.00    -0.003 C 
ATOM     14  C   UNL     1      48.022   4.323  14.403  1.00  0.00     0.004 C 
ENDBRANCH  12  13
ENDBRANCH  11  12
ENDBRANCH  10  11
ENDBRANCH   9  10
ENDBRANCH   1   9
TORSDOF 10
ENDMDL
MODEL 6
REMARK VINA RESULT:    -4.031      1.644      2.135
REMARK INTER + INTRA:          -7.416
REMARK INTER:                  -6.548
REMARK INTRA:                  -0.868
REMARK UNBOUND:                -1.029
REMARK SMILES CCCCCCCCCCCC(=O)[O-]
REMARK SMILES IDX 7 1 8 2 9 3 10 4 11 5 12 6 13 7 14 8 6 9 5 10 4 11 3 12 2 13
REMARK SMILES IDX 1 14
REMARK H PARENT
REMARK Flexibility Score: inf
ROOT
ATOM      1  C   UNL     1      44.138   9.740  20.953  1.00  0.00     0.000 C 
ENDROOT
BRANCH   1   2
ATOM      2  C   UNL     1      45.180   9.750  19.821  1.00  0.00     0.000 C 
BRANCH   2   3
ATOM      3  C   UNL     1      44.606   9.542  18.404  1.00  0.00     0.000 C 
BRANCH   3   4
ATOM      4  C   UNL     1      44.503   8.073  17.950  1.00  0.00     0.006 C 
BRANCH   4   5
ATOM      5  C   UNL     1      45.616   7.625  16.990  1.00  0.00     0.053 C 
BRANCH   5   6
ATOM      6  C   UNL     1      46.607   6.727  17.665  1.00  0.00     0.041 C 
ATOM      7  O   UNL     1      46.761   6.777  18.914  1.00  0.00    -0.550 OA
ATOM      8  O   UNL     1      47.338   5.812  16.918  1.00  0.00    -0.550 OA
ENDBRANCH   5   6
ENDBRANCH   4   5
ENDBRANCH   3   4
ENDBRANCH   2   3
ENDBRANCH   1   2
BRANCH   1   9
ATOM      9  C   UNL     1      44.235   8.492  21.843  1.00  0.00     0.000 C 
BRANCH   9  10
ATOM     10  C   UNL     1      44.513   8.881  23.303  1.00  0.00    -0.000 C 
BRANCH  10  11
ATOM     11  C   UNL     1      45.896   8.417  23.790  1.00  0.00    -0.000 C 
BRANCH  11  12
ATOM     12  C   UNL     1      47.085   9.208  23.211  1.00  0.00    -0.000 C 
BRANCH  12  13
ATOM     13  C   UNL     1      48.289   8.325  22.820  1.00  0.00    -0.003 C 
ATOM     14  C   UNL     1      47.864   6.946  22.314  1.00  0.00     0.004 C 
ENDBRANCH  12  13
ENDBRANCH  11  12
ENDBRANCH  10  11
ENDBRANCH   9  10
ENDBRANCH   1   9
TORSDOF 10
ENDMDL
MODEL 7
REMARK VINA RESULT:    -3.997      3.608      6.269
REMARK INTER + INTRA:          -7.362
REMARK INTER:                  -6.445
REMARK INTRA:                  -0.917
REMARK UNBOUND:                -1.029
REMARK SMILES CCCCCCCCCCCC(=O)[O-]
REMARK SMILES IDX 7 1 8 2 9 3 10 4 11 5 12 6 13 7 14 8 6 9 5 10 4 11 3 12 2 13
REMARK SMILES IDX 1 14
REMARK H PARENT
REMARK Flexibility Score: inf
ROOT
ATOM      1  C   UNL     1      46.023   8.549  18.341  1.00  0.00     0.000 C 
ENDROOT
BRANCH   1   2
ATOM      2  C   UNL     1      46.512   7.231  18.967  1.00  0.00     0.000 C 
BRANCH   2   3
ATOM      3  C   UNL     1      46.704   7.265  20.497  1.00  0.00     0.000 C 
BRANCH   3   4
ATOM      4  C   UNL     1      46.201   8.547  21.189  1.00  0.00     0.006 C 
BRANCH   4   5
ATOM      5  C   UNL     1      44.762   8.459  21.720  1.00  0.00     0.053 C 
BRANCH   5   6
ATOM      6  C   UNL     1      44.663   8.912  23.144  1.00  0.00     0.041 C 
ATOM      7  O   UNL     1      43.538   9.017  23.700  1.00  0.00    -0.550 OA
ATOM      8  O   UNL     1      45.816   9.187  23.869  1.00  0.00    -0.550 OA
ENDBRANCH   5   6
ENDBRANCH   4   5
ENDBRANCH   3   4
ENDBRANCH   2   3
ENDBRANCH   1   2
BRANCH   1   9
ATOM      9  C   UNL     1      44.587   8.459  17.807  1.00  0.00     0.000 C 
BRANCH   9  10
ATOM     10  C   UNL     1      44.580   8.217  16.290  1.00  0.00    -0.000 C 
BRANCH  10  11
ATOM     11  C   UNL     1      44.304   6.749  15.922  1.00  0.00    -0.000 C 
BRANCH  11  12
ATOM     12  C   UNL     1      45.326   6.120  14.957  1.00  0.00    -0.000 C 
BRANCH  12  13
ATOM     13  C   UNL     1      46.788   6.518  15.252  1.00  0.00    -0.003 C 
ATOM     14  C   UNL     1      47.602   5.363  15.836  1.00  0.00     0.004 C 
ENDBRANCH  12  13
ENDBRANCH  11  12
ENDBRANCH  10  11
ENDBRANCH   9  10
ENDBRANCH   1   9
TORSDOF 10
ENDMDL
MODEL 8
REMARK VINA RESULT:    -3.967      3.320      6.544
REMARK INTER + INTRA:          -7.315
REMARK INTER:                  -6.180
REMARK INTRA:                  -1.134
REMARK UNBOUND:                -1.029
REMARK SMILES CCCCCCCCCCCC(=O)[O-]
REMARK SMILES IDX 7 1 8 2 9 3 10 4 11 5 12 6 13 7 14 8 6 9 5 10 4 11 3 12 2 13
REMARK SMILES IDX 1 14
REMARK H PARENT
REMARK Flexibility Score: inf
ROOT
ATOM      1  C   UNL     1      44.792   9.551  16.556  1.00  0.00     0.000 C 
ENDROOT
BRANCH   1   2
ATOM      2  C   UNL     1      44.496   8.416  17.551  1.00  0.00     0.000 C 
BRANCH   2   3
ATOM      3  C   UNL     1      45.741   7.705  18.120  1.00  0.00     0.000 C 
BRANCH   3   4
ATOM      4  C   UNL     1      46.102   8.080  19.571  1.00  0.00     0.006 C 
BRANCH   4   5
ATOM      5  C   UNL     1      46.773   6.952  20.370  1.00  0.00     0.053 C 
BRANCH   5   6
ATOM      6  C   UNL     1      47.287   7.434  21.692  1.00  0.00     0.041 C 
ATOM      7  O   UNL     1      46.791   8.458  22.230  1.00  0.00    -0.550 OA
ATOM      8  O   UNL     1      48.291   6.730  22.346  1.00  0.00    -0.550 OA
ENDBRANCH   5   6
ENDBRANCH   4   5
ENDBRANCH   3   4
ENDBRANCH   2   3
ENDBRANCH   1   2
BRANCH   1   9
ATOM      9  C   UNL     1      46.264   9.595  16.121  1.00  0.00     0.000 C 
BRANCH   9  10
ATOM     10  C   UNL     1      46.382   9.616  14.589  1.00  0.00    -0.000 C 
BRANCH  10  11
ATOM     11  C   UNL     1      45.631   8.455  13.917  1.00  0.00    -0.000 C 
BRANCH  11  12
ATOM     12  C   UNL     1      46.194   7.055  14.226  1.00  0.00    -0.000 C 
BRANCH  12  13
ATOM     13  C   UNL     1      45.138   6.062  14.756  1.00  0.00    -0.003 C 
ATOM     14  C   UNL     1      43.712   6.472  14.387  1.00  0.00     0.004 C 
ENDBRANCH  12  13
ENDBRANCH  11  12
ENDBRANCH  10  11
ENDBRANCH   9  10
ENDBRANCH   1   9
TORSDOF 10
ENDMDL
MODEL 9
REMARK VINA RESULT:    -3.955      1.956      3.316
REMARK INTER + INTRA:          -7.297
REMARK INTER:                  -6.626
REMARK INTRA:                  -0.671
REMARK UNBOUND:                -1.029
REMARK SMILES CCCCCCCCCCCC(=O)[O-]
REMARK SMILES IDX 7 1 8 2 9 3 10 4 11 5 12 6 13 7 14 8 6 9 5 10 4 11 3 12 2 13
REMARK SMILES IDX 1 14
REMARK H PARENT
REMARK Flexibility Score: inf
ROOT
ATOM      1  C   UNL     1      44.422   8.118  17.579  1.00  0.00     0.000 C 
ENDROOT
BRANCH   1   2
ATOM      2  C   UNL     1      44.730   7.071  16.494  1.00  0.00     0.000 C 
BRANCH   2   3
ATOM      3  C   UNL     1      45.044   7.649  15.099  1.00  0.00     0.000 C 
BRANCH   3   4
ATOM      4  C   UNL     1      46.351   7.138  14.460  1.00  0.00     0.006 C 
BRANCH   4   5
ATOM      5  C   UNL     1      46.370   5.629  14.174  1.00  0.00     0.053 C 
BRANCH   5   6
ATOM      6  C   UNL     1      47.541   4.953  14.818  1.00  0.00     0.041 C 
ATOM      7  O   UNL     1      48.284   4.192  14.143  1.00  0.00    -0.550 OA
ATOM      8  O   UNL     1      47.832   5.190  16.156  1.00  0.00    -0.550 OA
ENDBRANCH   5   6
ENDBRANCH   4   5
ENDBRANCH   3   4
ENDBRANCH   2   3
ENDBRANCH   1   2
BRANCH   1   9
ATOM      9  C   UNL     1      45.671   8.555  18.358  1.00  0.00     0.000 C 
BRANCH   9  10
ATOM     10  C   UNL     1      46.584   7.353  18.648  1.00  0.00    -0.000 C 
BRANCH  10  11
ATOM     11  C   UNL     1      46.698   7.039  20.149  1.00  0.00    -0.000 C 
BRANCH  11  12
ATOM     12  C   UNL     1      46.309   8.199  21.084  1.00  0.00    -0.000 C 
BRANCH  12  13
ATOM     13  C   UNL     1      46.912   8.086  22.500  1.00  0.00    -0.003 C 
ATOM     14  C   UNL     1      45.931   8.518  23.590  1.00  0.00     0.004 C 
ENDBRANCH  12  13
ENDBRANCH  11  12
ENDBRANCH  10  11
ENDBRANCH   9  10
ENDBRANCH   1   9
TORSDOF 10
ENDMDL
