MODEL 1
REMARK VINA RESULT:     5.893      0.000      0.000
REMARK INTER + INTRA:           6.360
REMARK INTER:                   6.410
REMARK INTRA:                  -0.049
REMARK UNBOUND:                -0.049
REMARK SMILES COc1cc2ccc(=O)oc2cc1O
REMARK SMILES IDX 3 1 13 2 12 3 11 4 5 5 4 6 6 7 7 8 8 9 9 10 10 11 2 12 1 13
REMARK SMILES IDX 14 14
REMARK H PARENT 14 15
REMARK Flexibility Score: inf
ROOT
ATOM      1  C   UNL     1      20.190  43.011  11.782  1.00  0.00     0.161 A 
ATOM      2  C   UNL     1      20.779  41.736  11.874  1.00  0.00     0.161 A 
ATOM      3  C   UNL     1      20.141  40.623  11.316  1.00  0.00     0.098 A 
ATOM      4  C   UNL     1      18.916  40.764  10.661  1.00  0.00     0.142 A 
ATOM      5  C   UNL     1      18.318  42.038  10.562  1.00  0.00     0.022 A 
ATOM      6  C   UNL     1      18.952  43.155  11.121  1.00  0.00     0.062 A 
ATOM      7  C   UNL     1      17.090  42.148   9.900  1.00  0.00     0.019 A 
ATOM      8  C   UNL     1      16.498  41.006   9.362  1.00  0.00     0.094 A 
ATOM      9  C   UNL     1      17.150  39.776   9.498  1.00  0.00     0.336 A 
ATOM     10  O   UNL     1      16.632  38.733   9.018  1.00  0.00    -0.246 OA
ATOM     11  O   UNL     1      18.316  39.699  10.132  1.00  0.00    -0.423 OA
ENDROOT
BRANCH   1  12
ATOM     12  O   UNL     1      20.856  44.108  12.353  1.00  0.00    -0.493 OA
ATOM     13  C   UNL     1      20.227  45.125  13.124  1.00  0.00     0.278 C 
ENDBRANCH   1  12
BRANCH   2  14
ATOM     14  O   UNL     1      22.002  41.554  12.520  1.00  0.00    -0.504 OA
ATOM     15  H   UNL     1      22.145  41.809  13.490  1.00  0.00     0.293 HD
ENDBRANCH   2  14
TORSDOF 2
ENDMDL
MODEL 2
REMARK VINA RESULT:     7.767      1.206      4.824
REMARK INTER + INTRA:           8.399
REMARK INTER:                   8.463
REMARK INTRA:                  -0.064
REMARK UNBOUND:                -0.049
REMARK SMILES COc1cc2ccc(=O)oc2cc1O
REMARK SMILES IDX 3 1 13 2 12 3 11 4 5 5 4 6 6 7 7 8 8 9 9 10 10 11 2 12 1 13
REMARK SMILES IDX 14 14
REMARK H PARENT 14 15
REMARK Flexibility Score: inf
ROOT
ATOM      1  C   UNL     1      17.129  41.058   9.955  1.00  0.00     0.161 A 
ATOM      2  C   UNL     1      18.005  39.955   9.944  1.00  0.00     0.161 A 
ATOM      3  C   UNL     1      19.271  40.056  10.531  1.00  0.00     0.098 A 
ATOM      4  C   UNL     1      19.680  41.247  11.132  1.00  0.00     0.142 A 
ATOM      5  C   UNL     1      18.809  42.357  11.149  1.00  0.00     0.022 A 
ATOM      6  C   UNL     1      17.541  42.262  10.562  1.00  0.00     0.062 A 
ATOM      7  C   UNL     1      19.247  43.538  11.759  1.00  0.00     0.019 A 
ATOM      8  C   UNL     1      20.519  43.584  12.328  1.00  0.00     0.094 A 
ATOM      9  C   UNL     1      21.328  42.443  12.274  1.00  0.00     0.336 A 
ATOM     10  O   UNL     1      22.479  42.464  12.783  1.00  0.00    -0.246 OA
ATOM     11  O   UNL     1      20.887  41.334  11.688  1.00  0.00    -0.423 OA
ENDROOT
BRANCH   1  12
ATOM     12  O   UNL     1      15.864  40.923   9.358  1.00  0.00    -0.493 OA
ATOM     13  C   UNL     1      14.641  40.803  10.073  1.00  0.00     0.278 C 
ENDBRANCH   1  12
BRANCH   2  14
ATOM     14  O   UNL     1      17.633  38.747   9.353  1.00  0.00    -0.504 OA
ATOM     15  H   UNL     1      16.895  38.688   8.662  1.00  0.00     0.293 HD
ENDBRANCH   2  14
TORSDOF 2
ENDMDL
MODEL 3
REMARK VINA RESULT:     7.869      1.357      5.377
REMARK INTER + INTRA:           8.509
REMARK INTER:                   7.638
REMARK INTRA:                   0.871
REMARK UNBOUND:                -0.049
REMARK SMILES COc1cc2ccc(=O)oc2cc1O
REMARK SMILES IDX 3 1 13 2 12 3 11 4 5 5 4 6 6 7 7 8 8 9 9 10 10 11 2 12 1 13
REMARK SMILES IDX 14 14
REMARK H PARENT 14 15
REMARK Flexibility Score: inf
ROOT
ATOM      1  C   UNL     1      18.234  40.319  10.284  1.00  0.00     0.161 A 
ATOM      2  C   UNL     1      17.633  41.534   9.900  1.00  0.00     0.161 A 
ATOM      3  C   UNL     1      18.096  42.746  10.424  1.00  0.00     0.098 A 
ATOM      4  C   UNL     1      19.157  42.765  11.331  1.00  0.00     0.142 A 
ATOM      5  C   UNL     1      19.766  41.554  11.722  1.00  0.00     0.022 A 
ATOM      6  C   UNL     1      19.305  40.338  11.201  1.00  0.00     0.062 A 
ATOM      7  C   UNL     1      20.827  41.606  12.633  1.00  0.00     0.019 A 
ATOM      8  C   UNL     1      21.248  42.841  13.125  1.00  0.00     0.094 A 
ATOM      9  C   UNL     1      20.597  44.001  12.692  1.00  0.00     0.336 A 
ATOM     10  O   UNL     1      20.962  45.125  13.123  1.00  0.00    -0.246 OA
ATOM     11  O   UNL     1      19.591  43.923  11.825  1.00  0.00    -0.423 OA
ENDROOT
BRANCH   1  12
ATOM     12  O   UNL     1      17.746  39.120   9.739  1.00  0.00    -0.493 OA
ATOM     13  C   UNL     1      16.528  38.999   9.013  1.00  0.00     0.278 C 
ENDBRANCH   1  12
BRANCH   2  14
ATOM     14  O   UNL     1      16.571  41.556   8.995  1.00  0.00    -0.504 OA
ATOM     15  H   UNL     1      16.346  40.763   8.407  1.00  0.00     0.293 HD
ENDBRANCH   2  14
TORSDOF 2
ENDMDL
