MODEL 1
REMARK VINA RESULT:    -3.799      0.000      0.000
REMARK INTER + INTRA:          -3.910
REMARK INTER:                  -3.910
REMARK INTRA:                   0.000
REMARK UNBOUND:                 0.000
REMARK SMILES CC1(C)[C@H]2CC[C@](C)(C2)[C@H]1O
REMARK SMILES IDX 1 1 2 2 4 3 5 4 6 5 7 6 9 7 10 8 8 9 3 10 11 11
REMARK H PARENT 11 12
REMARK Flexibility Score: inf
ROOT
ATOM      1  C   UNL     1     116.210 114.370 119.603  1.00  0.00     0.014 C 
ATOM      2  C   UNL     1     115.397 115.475 120.322  1.00  0.00    -0.006 C 
ATOM      3  C   UNL     1     115.791 116.885 119.761  1.00  0.00    -0.002 C 
ATOM      4  C   UNL     1     114.821 117.976 120.260  1.00  0.00     0.005 C 
ATOM      5  C   UNL     1     115.135 118.050 121.763  1.00  0.00     0.010 C 
ATOM      6  C   UNL     1     116.322 117.069 121.912  1.00  0.00    -0.006 C 
ATOM      7  C   UNL     1     117.021 117.235 120.580  1.00  0.00     0.013 C 
ATOM      8  C   UNL     1     115.825 115.601 121.823  1.00  0.00     0.126 C 
ATOM      9  C   UNL     1     117.218 117.357 123.121  1.00  0.00     0.014 C 
ATOM     10  C   UNL     1     113.894 115.137 120.133  1.00  0.00     0.014 C 
ENDROOT
BRANCH   8  11
ATOM     11  O   UNL     1     114.769 115.346 122.716  1.00  0.00    -0.392 OA
ATOM     12  H   UNL     1     114.749 114.364 122.862  1.00  0.00     0.211 HD
ENDBRANCH   8  11
TORSDOF 1
ENDMDL
MODEL 2
REMARK VINA RESULT:    -3.790      1.694      2.574
REMARK INTER + INTRA:          -3.901
REMARK INTER:                  -3.901
REMARK INTRA:                   0.000
REMARK UNBOUND:                 0.000
REMARK SMILES CC1(C)[C@H]2CC[C@](C)(C2)[C@H]1O
REMARK SMILES IDX 1 1 2 2 4 3 5 4 6 5 7 6 9 7 10 8 8 9 3 10 11 11
REMARK H PARENT 11 12
REMARK Flexibility Score: inf
ROOT
ATOM      1  C   UNL     1     118.877 116.283 119.689  1.00  0.00     0.014 C 
ATOM      2  C   UNL     1     117.760 115.433 120.345  1.00  0.00    -0.006 C 
ATOM      3  C   UNL     1     116.365 115.822 119.745  1.00  0.00    -0.002 C 
ATOM      4  C   UNL     1     115.272 114.823 120.178  1.00  0.00     0.005 C 
ATOM      5  C   UNL     1     115.140 115.092 121.685  1.00  0.00     0.010 C 
ATOM      6  C   UNL     1     116.097 116.289 121.902  1.00  0.00    -0.006 C 
ATOM      7  C   UNL     1     115.967 117.024 120.585  1.00  0.00     0.013 C 
ATOM      8  C   UNL     1     117.575 115.816 121.851  1.00  0.00     0.126 C 
ATOM      9  C   UNL     1     115.753 117.145 123.125  1.00  0.00     0.014 C 
ATOM     10  C   UNL     1     118.128 113.942 120.125  1.00  0.00     0.014 C 
ENDROOT
BRANCH   8  11
ATOM     11  O   UNL     1     117.815 114.738 122.722  1.00  0.00    -0.392 OA
ATOM     12  H   UNL     1     118.136 113.984 122.162  1.00  0.00     0.211 HD
ENDBRANCH   8  11
TORSDOF 1
ENDMDL
MODEL 3
REMARK VINA RESULT:    -3.787      2.075      3.602
REMARK INTER + INTRA:          -3.898
REMARK INTER:                  -3.898
REMARK INTRA:                   0.000
REMARK UNBOUND:                 0.000
REMARK SMILES CC1(C)[C@H]2CC[C@](C)(C2)[C@H]1O
REMARK SMILES IDX 1 1 2 2 4 3 5 4 6 5 7 6 9 7 10 8 8 9 3 10 11 11
REMARK H PARENT 11 12
REMARK Flexibility Score: inf
ROOT
ATOM      1  C   UNL     1     116.903 118.886 119.670  1.00  0.00     0.014 C 
ATOM      2  C   UNL     1     117.752 117.766 120.320  1.00  0.00    -0.006 C 
ATOM      3  C   UNL     1     117.394 116.379 119.681  1.00  0.00    -0.002 C 
ATOM      4  C   UNL     1     118.397 115.289 120.113  1.00  0.00     0.005 C 
ATOM      5  C   UNL     1     118.095 115.121 121.611  1.00  0.00     0.010 C 
ATOM      6  C   UNL     1     116.882 116.058 121.821  1.00  0.00    -0.006 C 
ATOM      7  C   UNL     1     116.179 115.948 120.485  1.00  0.00     0.013 C 
ATOM      8  C   UNL     1     117.337 117.543 121.813  1.00  0.00     0.126 C 
ATOM      9  C   UNL     1     116.003 115.676 123.016  1.00  0.00     0.014 C 
ATOM     10  C   UNL     1     119.243 118.157 120.143  1.00  0.00     0.014 C 
ENDROOT
BRANCH   8  11
ATOM     11  O   UNL     1     118.392 117.776 122.714  1.00  0.00    -0.392 OA
ATOM     12  H   UNL     1     118.859 116.909 122.836  1.00  0.00     0.211 HD
ENDBRANCH   8  11
TORSDOF 1
ENDMDL
MODEL 4
REMARK VINA RESULT:    -3.775      1.668      2.524
REMARK INTER + INTRA:          -3.885
REMARK INTER:                  -3.885
REMARK INTRA:                   0.000
REMARK UNBOUND:                 0.000
REMARK SMILES CC1(C)[C@H]2CC[C@](C)(C2)[C@H]1O
REMARK SMILES IDX 1 1 2 2 4 3 5 4 6 5 7 6 9 7 10 8 8 9 3 10 11 11
REMARK H PARENT 11 12
REMARK Flexibility Score: inf
ROOT
ATOM      1  C   UNL     1     114.333 116.960 119.624  1.00  0.00     0.014 C 
ATOM      2  C   UNL     1     115.446 117.768 120.336  1.00  0.00    -0.006 C 
ATOM      3  C   UNL     1     116.846 117.405 119.731  1.00  0.00    -0.002 C 
ATOM      4  C   UNL     1     117.939 118.374 120.229  1.00  0.00     0.005 C 
ATOM      5  C   UNL     1     118.053 118.024 121.721  1.00  0.00     0.010 C 
ATOM      6  C   UNL     1     117.089 116.822 121.863  1.00  0.00    -0.006 C 
ATOM      7  C   UNL     1     117.230 116.158 120.510  1.00  0.00     0.013 C 
ATOM      8  C   UNL     1     115.613 117.304 121.822  1.00  0.00     0.126 C 
ATOM      9  C   UNL     1     117.417 115.900 123.042  1.00  0.00     0.014 C 
ATOM     10  C   UNL     1     115.087 119.271 120.193  1.00  0.00     0.014 C 
ENDROOT
BRANCH   8  11
ATOM     11  O   UNL     1     115.369 118.334 122.747  1.00  0.00    -0.392 OA
ATOM     12  H   UNL     1     115.000 117.904 123.562  1.00  0.00     0.211 HD
ENDBRANCH   8  11
TORSDOF 1
ENDMDL
MODEL 5
REMARK VINA RESULT:    -3.683      1.320      2.581
REMARK INTER + INTRA:          -3.790
REMARK INTER:                  -3.790
REMARK INTRA:                   0.000
REMARK UNBOUND:                 0.000
REMARK SMILES CC1(C)[C@H]2CC[C@](C)(C2)[C@H]1O
REMARK SMILES IDX 1 1 2 2 4 3 5 4 6 5 7 6 9 7 10 8 8 9 3 10 11 11
REMARK H PARENT 11 12
REMARK Flexibility Score: inf
ROOT
ATOM      1  C   UNL     1     117.579 115.682 122.892  1.00  0.00     0.014 C 
ATOM      2  C   UNL     1     116.195 115.883 122.225  1.00  0.00    -0.006 C 
ATOM      3  C   UNL     1     116.221 115.336 120.757  1.00  0.00    -0.002 C 
ATOM      4  C   UNL     1     114.801 115.278 120.156  1.00  0.00     0.005 C 
ATOM      5  C   UNL     1     114.429 116.763 120.015  1.00  0.00     0.010 C 
ATOM      6  C   UNL     1     115.728 117.482 120.451  1.00  0.00    -0.006 C 
ATOM      7  C   UNL     1     116.786 116.509 119.976  1.00  0.00     0.013 C 
ATOM      8  C   UNL     1     115.900 117.402 121.992  1.00  0.00     0.126 C 
ATOM      9  C   UNL     1     115.880 118.892 119.873  1.00  0.00     0.014 C 
ATOM     10  C   UNL     1     115.144 115.179 123.125  1.00  0.00     0.014 C 
ENDROOT
BRANCH   8  11
ATOM     11  O   UNL     1     114.754 117.848 122.674  1.00  0.00    -0.392 OA
ATOM     12  H   UNL     1     114.791 118.840 122.675  1.00  0.00     0.211 HD
ENDBRANCH   8  11
TORSDOF 1
ENDMDL
MODEL 6
REMARK VINA RESULT:    -3.673      1.862      2.836
REMARK INTER + INTRA:          -3.780
REMARK INTER:                  -3.780
REMARK INTRA:                   0.000
REMARK UNBOUND:                 0.000
REMARK SMILES CC1(C)[C@H]2CC[C@](C)(C2)[C@H]1O
REMARK SMILES IDX 1 1 2 2 4 3 5 4 6 5 7 6 9 7 10 8 8 9 3 10 11 11
REMARK H PARENT 11 12
REMARK Flexibility Score: inf
ROOT
ATOM      1  C   UNL     1     115.562 115.674 122.817  1.00  0.00     0.014 C 
ATOM      2  C   UNL     1     115.828 117.070 122.200  1.00  0.00    -0.006 C 
ATOM      3  C   UNL     1     115.302 117.114 120.724  1.00  0.00    -0.002 C 
ATOM      4  C   UNL     1     115.309 118.555 120.171  1.00  0.00     0.005 C 
ATOM      5  C   UNL     1     116.809 118.871 120.062  1.00  0.00     0.010 C 
ATOM      6  C   UNL     1     117.470 117.531 120.464  1.00  0.00    -0.006 C 
ATOM      7  C   UNL     1     116.464 116.528 119.940  1.00  0.00     0.013 C 
ATOM      8  C   UNL     1     117.361 117.311 121.997  1.00  0.00     0.126 C 
ATOM      9  C   UNL     1     118.882 117.342 119.900  1.00  0.00     0.014 C 
ATOM     10  C   UNL     1     115.153 118.117 123.124  1.00  0.00     0.014 C 
ENDROOT
BRANCH   8  11
ATOM     11  O   UNL     1     117.842 118.415 122.724  1.00  0.00    -0.392 OA
ATOM     12  H   UNL     1     118.391 118.051 123.465  1.00  0.00     0.211 HD
ENDBRANCH   8  11
TORSDOF 1
ENDMDL
MODEL 7
REMARK VINA RESULT:    -3.658      1.853      3.561
REMARK INTER + INTRA:          -3.765
REMARK INTER:                  -3.765
REMARK INTRA:                   0.000
REMARK UNBOUND:                 0.000
REMARK SMILES CC1(C)[C@H]2CC[C@](C)(C2)[C@H]1O
REMARK SMILES IDX 1 1 2 2 4 3 5 4 6 5 7 6 9 7 10 8 8 9 3 10 11 11
REMARK H PARENT 11 12
REMARK Flexibility Score: inf
ROOT
ATOM      1  C   UNL     1     115.516 117.077 122.766  1.00  0.00     0.014 C 
ATOM      2  C   UNL     1     116.938 116.995 122.159  1.00  0.00    -0.006 C 
ATOM      3  C   UNL     1     116.938 117.585 120.706  1.00  0.00    -0.002 C 
ATOM      4  C   UNL     1     118.375 117.761 120.174  1.00  0.00     0.005 C 
ATOM      5  C   UNL     1     118.858 116.311 120.008  1.00  0.00     0.010 C 
ATOM      6  C   UNL     1     117.596 115.489 120.363  1.00  0.00    -0.006 C 
ATOM      7  C   UNL     1     116.493 116.399 119.867  1.00  0.00     0.013 C 
ATOM      8  C   UNL     1     117.351 115.508 121.896  1.00  0.00     0.126 C 
ATOM      9  C   UNL     1     117.571 114.090 119.739  1.00  0.00     0.014 C 
ATOM     10  C   UNL     1     117.895 117.742 123.125  1.00  0.00     0.014 C 
ENDROOT
BRANCH   8  11
ATOM     11  O   UNL     1     118.495 115.122 122.618  1.00  0.00    -0.392 OA
ATOM     12  H   UNL     1     118.581 114.139 122.512  1.00  0.00     0.211 HD
ENDBRANCH   8  11
TORSDOF 1
ENDMDL
MODEL 8
REMARK VINA RESULT:    -3.610      1.327      3.546
REMARK INTER + INTRA:          -3.716
REMARK INTER:                  -3.716
REMARK INTRA:                   0.000
REMARK UNBOUND:                 0.000
REMARK SMILES CC1(C)[C@H]2CC[C@](C)(C2)[C@H]1O
REMARK SMILES IDX 1 1 2 2 4 3 5 4 6 5 7 6 9 7 10 8 8 9 3 10 11 11
REMARK H PARENT 11 12
REMARK Flexibility Score: inf
ROOT
ATOM      1  C   UNL     1     116.413 117.655 122.125  1.00  0.00     0.014 C 
ATOM      2  C   UNL     1     116.710 116.172 121.789  1.00  0.00    -0.006 C 
ATOM      3  C   UNL     1     117.688 116.083 120.568  1.00  0.00    -0.002 C 
ATOM      4  C   UNL     1     118.210 114.644 120.374  1.00  0.00     0.005 C 
ATOM      5  C   UNL     1     116.953 113.882 119.925  1.00  0.00     0.010 C 
ATOM      6  C   UNL     1     115.895 115.006 119.814  1.00  0.00    -0.006 C 
ATOM      7  C   UNL     1     116.746 116.181 119.381  1.00  0.00     0.013 C 
ATOM      8  C   UNL     1     115.435 115.458 121.227  1.00  0.00     0.126 C 
ATOM      9  C   UNL     1     114.747 114.685 118.852  1.00  0.00     0.014 C 
ATOM     10  C   UNL     1     117.272 115.512 123.076  1.00  0.00     0.014 C 
ENDROOT
BRANCH   8  11
ATOM     11  O   UNL     1     115.021 114.373 122.019  1.00  0.00    -0.392 OA
ATOM     12  H   UNL     1     115.669 113.639 121.858  1.00  0.00     0.211 HD
ENDBRANCH   8  11
TORSDOF 1
ENDMDL
MODEL 9
REMARK VINA RESULT:    -3.519      2.148      3.145
REMARK INTER + INTRA:          -3.621
REMARK INTER:                  -3.621
REMARK INTRA:                   0.000
REMARK UNBOUND:                 0.000
REMARK SMILES CC1(C)[C@H]2CC[C@](C)(C2)[C@H]1O
REMARK SMILES IDX 1 1 2 2 4 3 5 4 6 5 7 6 9 7 10 8 8 9 3 10 11 11
REMARK H PARENT 11 12
REMARK Flexibility Score: inf
ROOT
ATOM      1  C   UNL     1     116.812 114.140 119.685  1.00  0.00     0.014 C 
ATOM      2  C   UNL     1     117.447 115.127 120.696  1.00  0.00    -0.006 C 
ATOM      3  C   UNL     1     116.343 115.716 121.640  1.00  0.00    -0.002 C 
ATOM      4  C   UNL     1     116.969 116.491 122.818  1.00  0.00     0.005 C 
ATOM      5  C   UNL     1     117.591 117.716 122.129  1.00  0.00     0.010 C 
ATOM      6  C   UNL     1     117.146 117.542 120.657  1.00  0.00    -0.006 C 
ATOM      7  C   UNL     1     115.797 116.877 120.826  1.00  0.00     0.013 C 
ATOM      8  C   UNL     1     117.967 116.414 119.974  1.00  0.00     0.126 C 
ATOM      9  C   UNL     1     117.096 118.852 119.865  1.00  0.00     0.014 C 
ATOM     10  C   UNL     1     118.557 114.354 121.458  1.00  0.00     0.014 C 
ENDROOT
BRANCH   8  11
ATOM     11  O   UNL     1     119.352 116.605 120.124  1.00  0.00    -0.392 OA
ATOM     12  H   UNL     1     119.665 115.920 120.771  1.00  0.00     0.211 HD
ENDBRANCH   8  11
TORSDOF 1
ENDMDL
