MODEL 1
REMARK VINA RESULT:    -5.498      0.000      0.000
REMARK INTER + INTRA:         -12.611
REMARK INTER:                 -10.319
REMARK INTRA:                  -2.292
REMARK UNBOUND:                -2.292
REMARK SMILES CCCCCCCCC=CCCCCCCCC(=O)[O-]
REMARK SMILES IDX 10 1 9 2 11 3 12 4 13 5 14 6 15 7 16 8 17 9 18 10 19 11
REMARK SMILES IDX 20 12 8 13 7 14 6 15 5 16 4 17 3 18 2 19 1 20
REMARK H PARENT
REMARK Flexibility Score: inf
ROOT
ATOM      1  C   UNL     1      11.927   7.519  53.346  1.00  0.00    -0.031 C 
ATOM      2  C   UNL     1      11.211   7.662  54.471  1.00  0.00    -0.031 C 
ENDROOT
BRANCH   1   3
ATOM      3  C   UNL     1      11.892   6.245  52.548  1.00  0.00     0.027 C 
BRANCH   3   4
ATOM      4  C   UNL     1      12.443   5.066  53.365  1.00  0.00     0.004 C 
BRANCH   4   5
ATOM      5  C   UNL     1      11.680   3.758  53.104  1.00  0.00     0.000 C 
BRANCH   5   6
ATOM      6  C   UNL     1      11.018   3.198  54.373  1.00  0.00     0.000 C 
BRANCH   6   7
ATOM      7  C   UNL     1      10.346   4.318  55.182  1.00  0.00     0.000 C 
BRANCH   7   8
ATOM      8  C   UNL     1      10.911   4.442  56.606  1.00  0.00     0.006 C 
BRANCH   8   9
ATOM      9  C   UNL     1      12.410   4.119  56.677  1.00  0.00     0.053 C 
BRANCH   9  10
ATOM     10  C   UNL     1      12.670   3.061  57.702  1.00  0.00     0.041 C 
ATOM     11  O   UNL     1      12.786   1.857  57.353  1.00  0.00    -0.550 OA
ATOM     12  O   UNL     1      12.822   3.409  59.039  1.00  0.00    -0.550 OA
ENDBRANCH   9  10
ENDBRANCH   8   9
ENDBRANCH   7   8
ENDBRANCH   6   7
ENDBRANCH   5   6
ENDBRANCH   4   5
ENDBRANCH   3   4
ENDBRANCH   1   3
BRANCH   2  13
ATOM     13  C   UNL     1      11.290   8.913  55.306  1.00  0.00     0.027 C 
BRANCH  13  14
ATOM     14  C   UNL     1       9.894   9.415  55.700  1.00  0.00     0.004 C 
BRANCH  14  15
ATOM     15  C   UNL     1       8.797   8.379  55.401  1.00  0.00     0.000 C 
BRANCH  15  16
ATOM     16  C   UNL     1       7.502   9.018  54.869  1.00  0.00     0.000 C 
BRANCH  16  17
ATOM     17  C   UNL     1       7.342   8.999  53.335  1.00  0.00    -0.000 C 
BRANCH  17  18
ATOM     18  C   UNL     1       8.256   8.005  52.597  1.00  0.00    -0.000 C 
BRANCH  18  19
ATOM     19  C   UNL     1       8.739   8.537  51.240  1.00  0.00    -0.003 C 
ATOM     20  C   UNL     1       9.637   9.759  51.417  1.00  0.00     0.004 C 
ENDBRANCH  18  19
ENDBRANCH  17  18
ENDBRANCH  16  17
ENDBRANCH  15  16
ENDBRANCH  14  15
ENDBRANCH  13  14
ENDBRANCH   2  13
TORSDOF 15
ENDMDL
MODEL 2
REMARK VINA RESULT:    -5.472      3.680      7.548
REMARK INTER + INTRA:         -12.564
REMARK INTER:                 -10.765
REMARK INTRA:                  -1.798
REMARK UNBOUND:                -2.292
REMARK SMILES CCCCCCCCC=CCCCCCCCC(=O)[O-]
REMARK SMILES IDX 10 1 9 2 11 3 12 4 13 5 14 6 15 7 16 8 17 9 18 10 19 11
REMARK SMILES IDX 20 12 8 13 7 14 6 15 5 16 4 17 3 18 2 19 1 20
REMARK H PARENT
REMARK Flexibility Score: inf
ROOT
ATOM      1  C   UNL     1      12.326   4.890  53.844  1.00  0.00    -0.031 C 
ATOM      2  C   UNL     1      11.303   4.095  54.192  1.00  0.00    -0.031 C 
ENDROOT
BRANCH   1   3
ATOM      3  C   UNL     1      12.260   5.768  52.626  1.00  0.00     0.027 C 
BRANCH   3   4
ATOM      4  C   UNL     1      11.218   6.883  52.803  1.00  0.00     0.004 C 
BRANCH   4   5
ATOM      5  C   UNL     1      11.563   7.836  53.958  1.00  0.00     0.000 C 
BRANCH   5   6
ATOM      6  C   UNL     1      10.713   7.576  55.211  1.00  0.00     0.000 C 
BRANCH   6   7
ATOM      7  C   UNL     1       9.246   7.317  54.837  1.00  0.00     0.000 C 
BRANCH   7   8
ATOM      8  C   UNL     1       8.375   8.580  54.941  1.00  0.00     0.006 C 
BRANCH   8   9
ATOM      9  C   UNL     1       7.469   8.776  53.717  1.00  0.00     0.053 C 
BRANCH   9  10
ATOM     10  C   UNL     1       8.279   9.179  52.526  1.00  0.00     0.041 C 
ATOM     11  O   UNL     1       9.160  10.072  52.632  1.00  0.00    -0.550 OA
ATOM     12  O   UNL     1       8.088   8.541  51.306  1.00  0.00    -0.550 OA
ENDBRANCH   9  10
ENDBRANCH   8   9
ENDBRANCH   7   8
ENDBRANCH   6   7
ENDBRANCH   5   6
ENDBRANCH   4   5
ENDBRANCH   3   4
ENDBRANCH   1   3
BRANCH   2  13
ATOM     13  C   UNL     1      11.387   3.168  55.376  1.00  0.00     0.027 C 
BRANCH  13  14
ATOM     14  C   UNL     1      11.501   3.947  56.693  1.00  0.00     0.004 C 
BRANCH  14  15
ATOM     15  C   UNL     1      12.693   3.479  57.546  1.00  0.00     0.000 C 
BRANCH  15  16
ATOM     16  C   UNL     1      12.873   1.950  57.530  1.00  0.00     0.000 C 
BRANCH  16  17
ATOM     17  C   UNL     1      14.285   1.460  57.147  1.00  0.00    -0.000 C 
BRANCH  17  18
ATOM     18  C   UNL     1      15.049   2.372  56.171  1.00  0.00    -0.000 C 
BRANCH  18  19
ATOM     19  C   UNL     1      16.364   1.747  55.681  1.00  0.00    -0.003 C 
ATOM     20  C   UNL     1      16.532   0.328  56.217  1.00  0.00     0.004 C 
ENDBRANCH  18  19
ENDBRANCH  17  18
ENDBRANCH  16  17
ENDBRANCH  15  16
ENDBRANCH  14  15
ENDBRANCH  13  14
ENDBRANCH   2  13
TORSDOF 15
ENDMDL
MODEL 3
REMARK VINA RESULT:    -5.429      2.735      4.627
REMARK INTER + INTRA:         -12.483
REMARK INTER:                 -10.406
REMARK INTRA:                  -2.076
REMARK UNBOUND:                -2.292
REMARK SMILES CCCCCCCCC=CCCCCCCCC(=O)[O-]
REMARK SMILES IDX 10 1 9 2 11 3 12 4 13 5 14 6 15 7 16 8 17 9 18 10 19 11
REMARK SMILES IDX 20 12 8 13 7 14 6 15 5 16 4 17 3 18 2 19 1 20
REMARK H PARENT
REMARK Flexibility Score: inf
ROOT
ATOM      1  C   UNL     1      10.791   3.991  56.394  1.00  0.00    -0.031 C 
ATOM      2  C   UNL     1      10.461   5.291  56.346  1.00  0.00    -0.031 C 
ENDROOT
BRANCH   1   3
ATOM      3  C   UNL     1      11.985   3.512  57.172  1.00  0.00     0.027 C 
BRANCH   3   4
ATOM      4  C   UNL     1      13.291   4.052  56.570  1.00  0.00     0.004 C 
BRANCH   4   5
ATOM      5  C   UNL     1      14.233   2.932  56.101  1.00  0.00     0.000 C 
BRANCH   5   6
ATOM      6  C   UNL     1      15.586   3.466  55.607  1.00  0.00     0.000 C 
BRANCH   6   7
ATOM      7  C   UNL     1      16.616   2.332  55.490  1.00  0.00     0.000 C 
BRANCH   7   8
ATOM      8  C   UNL     1      16.093   0.997  56.045  1.00  0.00     0.006 C 
BRANCH   8   9
ATOM      9  C   UNL     1      17.035   0.381  57.088  1.00  0.00     0.053 C 
BRANCH   9  10
ATOM     10  C   UNL     1      16.409   0.422  58.447  1.00  0.00     0.041 C 
ATOM     11  O   UNL     1      17.112   0.227  59.473  1.00  0.00    -0.550 OA
ATOM     12  O   UNL     1      15.057   0.714  58.582  1.00  0.00    -0.550 OA
ENDBRANCH   9  10
ENDBRANCH   8   9
ENDBRANCH   7   8
ENDBRANCH   6   7
ENDBRANCH   5   6
ENDBRANCH   4   5
ENDBRANCH   3   4
ENDBRANCH   1   3
BRANCH   2  13
ATOM     13  C   UNL     1       9.303   5.784  55.518  1.00  0.00     0.027 C 
BRANCH  13  14
ATOM     14  C   UNL     1       9.406   7.290  55.248  1.00  0.00     0.004 C 
BRANCH  14  15
ATOM     15  C   UNL     1      10.815   7.838  55.537  1.00  0.00     0.000 C 
BRANCH  15  16
ATOM     16  C   UNL     1      11.660   8.012  54.261  1.00  0.00     0.000 C 
BRANCH  16  17
ATOM     17  C   UNL     1      10.958   7.607  52.949  1.00  0.00    -0.000 C 
BRANCH  17  18
ATOM     18  C   UNL     1      11.555   6.376  52.243  1.00  0.00    -0.000 C 
BRANCH  18  19
ATOM     19  C   UNL     1      12.396   5.502  53.185  1.00  0.00    -0.003 C 
ATOM     20  C   UNL     1      12.041   4.026  53.028  1.00  0.00     0.004 C 
ENDBRANCH  18  19
ENDBRANCH  17  18
ENDBRANCH  16  17
ENDBRANCH  15  16
ENDBRANCH  14  15
ENDBRANCH  13  14
ENDBRANCH   2  13
TORSDOF 15
ENDMDL
MODEL 4
REMARK VINA RESULT:    -5.276      1.539      2.371
REMARK INTER + INTRA:         -12.196
REMARK INTER:                 -10.079
REMARK INTRA:                  -2.117
REMARK UNBOUND:                -2.292
REMARK SMILES CCCCCCCCC=CCCCCCCCC(=O)[O-]
REMARK SMILES IDX 10 1 9 2 11 3 12 4 13 5 14 6 15 7 16 8 17 9 18 10 19 11
REMARK SMILES IDX 20 12 8 13 7 14 6 15 5 16 4 17 3 18 2 19 1 20
REMARK H PARENT
REMARK Flexibility Score: inf
ROOT
ATOM      1  C   UNL     1      12.115   5.370  53.582  1.00  0.00    -0.031 C 
ATOM      2  C   UNL     1      11.585   6.481  53.047  1.00  0.00    -0.031 C 
ENDROOT
BRANCH   1   3
ATOM      3  C   UNL     1      11.762   4.003  53.064  1.00  0.00     0.027 C 
BRANCH   3   4
ATOM      4  C   UNL     1      11.007   3.188  54.126  1.00  0.00     0.004 C 
BRANCH   4   5
ATOM      5  C   UNL     1      10.279   4.077  55.146  1.00  0.00     0.000 C 
BRANCH   5   6
ATOM      6  C   UNL     1      10.966   4.083  56.520  1.00  0.00     0.000 C 
BRANCH   6   7
ATOM      7  C   UNL     1      12.060   3.007  56.592  1.00  0.00     0.000 C 
BRANCH   7   8
ATOM      8  C   UNL     1      13.434   3.582  56.971  1.00  0.00     0.006 C 
BRANCH   8   9
ATOM      9  C   UNL     1      14.446   3.504  55.820  1.00  0.00     0.053 C 
BRANCH   9  10
ATOM     10  C   UNL     1      15.381   2.354  56.023  1.00  0.00     0.041 C 
ATOM     11  O   UNL     1      15.059   1.403  56.783  1.00  0.00    -0.550 OA
ATOM     12  O   UNL     1      16.593   2.314  55.344  1.00  0.00    -0.550 OA
ENDBRANCH   9  10
ENDBRANCH   8   9
ENDBRANCH   7   8
ENDBRANCH   6   7
ENDBRANCH   5   6
ENDBRANCH   4   5
ENDBRANCH   3   4
ENDBRANCH   1   3
BRANCH   2  13
ATOM     13  C   UNL     1      11.887   7.848  53.600  1.00  0.00     0.027 C 
BRANCH  13  14
ATOM     14  C   UNL     1      11.456   7.969  55.068  1.00  0.00     0.004 C 
BRANCH  14  15
ATOM     15  C   UNL     1      10.209   8.854  55.238  1.00  0.00     0.000 C 
BRANCH  15  16
ATOM     16  C   UNL     1       8.898   8.048  55.222  1.00  0.00     0.000 C 
BRANCH  16  17
ATOM     17  C   UNL     1       7.927   8.395  54.075  1.00  0.00    -0.000 C 
BRANCH  17  18
ATOM     18  C   UNL     1       8.253   7.734  52.723  1.00  0.00    -0.000 C 
BRANCH  18  19
ATOM     19  C   UNL     1       8.211   8.727  51.552  1.00  0.00    -0.003 C 
ATOM     20  C   UNL     1       9.418   9.662  51.581  1.00  0.00     0.004 C 
ENDBRANCH  18  19
ENDBRANCH  17  18
ENDBRANCH  16  17
ENDBRANCH  15  16
ENDBRANCH  14  15
ENDBRANCH  13  14
ENDBRANCH   2  13
TORSDOF 15
ENDMDL
MODEL 5
REMARK VINA RESULT:    -5.210      3.422      7.073
REMARK INTER + INTRA:         -12.071
REMARK INTER:                 -10.221
REMARK INTRA:                  -1.850
REMARK UNBOUND:                -2.292
REMARK SMILES CCCCCCCCC=CCCCCCCCC(=O)[O-]
REMARK SMILES IDX 10 1 9 2 11 3 12 4 13 5 14 6 15 7 16 8 17 9 18 10 19 11
REMARK SMILES IDX 20 12 8 13 7 14 6 15 5 16 4 17 3 18 2 19 1 20
REMARK H PARENT
REMARK Flexibility Score: inf
ROOT
ATOM      1  C   UNL     1      11.363   6.466  53.116  1.00  0.00    -0.031 C 
ATOM      2  C   UNL     1      12.122   5.418  53.468  1.00  0.00    -0.031 C 
ENDROOT
BRANCH   1   3
ATOM      3  C   UNL     1      11.667   7.855  53.604  1.00  0.00     0.027 C 
BRANCH   3   4
ATOM      4  C   UNL     1      10.913   8.161  54.907  1.00  0.00     0.004 C 
BRANCH   4   5
ATOM      5  C   UNL     1       9.438   7.732  54.851  1.00  0.00     0.000 C 
BRANCH   5   6
ATOM      6  C   UNL     1       8.476   8.881  55.190  1.00  0.00     0.000 C 
BRANCH   6   7
ATOM      7  C   UNL     1       7.301   8.925  54.201  1.00  0.00     0.000 C 
BRANCH   7   8
ATOM      8  C   UNL     1       7.637   9.700  52.916  1.00  0.00     0.006 C 
BRANCH   8   9
ATOM      9  C   UNL     1       7.733   8.790  51.684  1.00  0.00     0.053 C 
BRANCH   9  10
ATOM     10  C   UNL     1       9.107   8.851  51.095  1.00  0.00     0.041 C 
ATOM     11  O   UNL     1       9.845   9.848  51.313  1.00  0.00    -0.550 OA
ATOM     12  O   UNL     1       9.587   7.791  50.335  1.00  0.00    -0.550 OA
ENDBRANCH   9  10
ENDBRANCH   8   9
ENDBRANCH   7   8
ENDBRANCH   6   7
ENDBRANCH   5   6
ENDBRANCH   4   5
ENDBRANCH   3   4
ENDBRANCH   1   3
BRANCH   2  13
ATOM     13  C   UNL     1      11.787   4.015  53.032  1.00  0.00     0.027 C 
BRANCH  13  14
ATOM     14  C   UNL     1      11.050   3.245  54.135  1.00  0.00     0.004 C 
BRANCH  14  15
ATOM     15  C   UNL     1      10.490   4.178  55.222  1.00  0.00     0.000 C 
BRANCH  15  16
ATOM     16  C   UNL     1      11.210   4.018  56.574  1.00  0.00     0.000 C 
BRANCH  16  17
ATOM     17  C   UNL     1      12.355   2.985  56.589  1.00  0.00    -0.000 C 
BRANCH  17  18
ATOM     18  C   UNL     1      13.760   3.572  56.816  1.00  0.00    -0.000 C 
BRANCH  18  19
ATOM     19  C   UNL     1      14.586   3.650  55.524  1.00  0.00    -0.003 C 
ATOM     20  C   UNL     1      15.802   2.729  55.593  1.00  0.00     0.004 C 
ENDBRANCH  18  19
ENDBRANCH  17  18
ENDBRANCH  16  17
ENDBRANCH  15  16
ENDBRANCH  14  15
ENDBRANCH  13  14
ENDBRANCH   2  13
TORSDOF 15
ENDMDL
MODEL 6
REMARK VINA RESULT:    -5.141      3.141      7.437
REMARK INTER + INTRA:         -11.942
REMARK INTER:                 -10.281
REMARK INTRA:                  -1.661
REMARK UNBOUND:                -2.292
REMARK SMILES CCCCCCCCC=CCCCCCCCC(=O)[O-]
REMARK SMILES IDX 10 1 9 2 11 3 12 4 13 5 14 6 15 7 16 8 17 9 18 10 19 11
REMARK SMILES IDX 20 12 8 13 7 14 6 15 5 16 4 17 3 18 2 19 1 20
REMARK H PARENT
REMARK Flexibility Score: inf
ROOT
ATOM      1  C   UNL     1      10.144   5.383  55.632  1.00  0.00    -0.031 C 
ATOM      2  C   UNL     1      10.418   4.314  54.869  1.00  0.00    -0.031 C 
ENDROOT
BRANCH   1   3
ATOM      3  C   UNL     1       9.074   6.367  55.250  1.00  0.00     0.027 C 
BRANCH   3   4
ATOM      4  C   UNL     1       9.474   7.799  55.641  1.00  0.00     0.004 C 
BRANCH   4   5
ATOM      5  C   UNL     1       8.749   8.864  54.803  1.00  0.00     0.000 C 
BRANCH   5   6
ATOM      6  C   UNL     1       8.056   8.272  53.567  1.00  0.00     0.000 C 
BRANCH   6   7
ATOM      7  C   UNL     1       8.477   9.017  52.291  1.00  0.00     0.000 C 
BRANCH   7   8
ATOM      8  C   UNL     1       9.940   8.746  51.902  1.00  0.00     0.006 C 
BRANCH   8   9
ATOM      9  C   UNL     1      10.256   7.248  51.796  1.00  0.00     0.053 C 
BRANCH   9  10
ATOM     10  C   UNL     1      11.513   6.926  52.541  1.00  0.00     0.041 C 
ATOM     11  O   UNL     1      12.135   5.858  52.299  1.00  0.00    -0.550 OA
ATOM     12  O   UNL     1      12.017   7.821  53.477  1.00  0.00    -0.550 OA
ENDBRANCH   9  10
ENDBRANCH   8   9
ENDBRANCH   7   8
ENDBRANCH   6   7
ENDBRANCH   5   6
ENDBRANCH   4   5
ENDBRANCH   3   4
ENDBRANCH   1   3
BRANCH   2  13
ATOM     13  C   UNL     1      11.530   3.358  55.215  1.00  0.00     0.027 C 
BRANCH  13  14
ATOM     14  C   UNL     1      11.948   3.491  56.685  1.00  0.00     0.004 C 
BRANCH  14  15
ATOM     15  C   UNL     1      13.468   3.338  56.874  1.00  0.00     0.000 C 
BRANCH  15  16
ATOM     16  C   UNL     1      14.266   3.698  55.607  1.00  0.00     0.000 C 
BRANCH  16  17
ATOM     17  C   UNL     1      15.780   3.415  55.684  1.00  0.00    -0.000 C 
BRANCH  17  18
ATOM     18  C   UNL     1      16.200   1.993  55.270  1.00  0.00    -0.000 C 
BRANCH  18  19
ATOM     19  C   UNL     1      16.262   1.022  56.458  1.00  0.00    -0.003 C 
ATOM     20  C   UNL     1      16.569  -0.398  55.991  1.00  0.00     0.004 C 
ENDBRANCH  18  19
ENDBRANCH  17  18
ENDBRANCH  16  17
ENDBRANCH  15  16
ENDBRANCH  14  15
ENDBRANCH  13  14
ENDBRANCH   2  13
TORSDOF 15
ENDMDL
MODEL 7
REMARK VINA RESULT:    -5.120      3.737      7.878
REMARK INTER + INTRA:         -11.902
REMARK INTER:                 -10.718
REMARK INTRA:                  -1.183
REMARK UNBOUND:                -2.292
REMARK SMILES CCCCCCCCC=CCCCCCCCC(=O)[O-]
REMARK SMILES IDX 10 1 9 2 11 3 12 4 13 5 14 6 15 7 16 8 17 9 18 10 19 11
REMARK SMILES IDX 20 12 8 13 7 14 6 15 5 16 4 17 3 18 2 19 1 20
REMARK H PARENT
REMARK Flexibility Score: inf
ROOT
ATOM      1  C   UNL     1      11.394   6.730  55.439  1.00  0.00    -0.031 C 
ATOM      2  C   UNL     1      10.276   5.993  55.525  1.00  0.00    -0.031 C 
ENDROOT
BRANCH   1   3
ATOM      3  C   UNL     1      11.405   8.063  54.744  1.00  0.00     0.027 C 
BRANCH   3   4
ATOM      4  C   UNL     1      10.685   9.131  55.582  1.00  0.00     0.004 C 
BRANCH   4   5
ATOM      5  C   UNL     1       9.470   9.731  54.857  1.00  0.00     0.000 C 
BRANCH   5   6
ATOM      6  C   UNL     1       8.160   9.006  55.202  1.00  0.00     0.000 C 
BRANCH   6   7
ATOM      7  C   UNL     1       7.140   9.140  54.060  1.00  0.00     0.000 C 
BRANCH   7   8
ATOM      8  C   UNL     1       7.750   9.754  52.790  1.00  0.00     0.006 C 
BRANCH   8   9
ATOM      9  C   UNL     1       7.682   8.808  51.583  1.00  0.00     0.053 C 
BRANCH   9  10
ATOM     10  C   UNL     1       9.057   8.495  51.085  1.00  0.00     0.041 C 
ATOM     11  O   UNL     1       9.799   7.706  51.728  1.00  0.00    -0.550 OA
ATOM     12  O   UNL     1       9.507   9.045  49.891  1.00  0.00    -0.550 OA
ENDBRANCH   9  10
ENDBRANCH   8   9
ENDBRANCH   7   8
ENDBRANCH   6   7
ENDBRANCH   5   6
ENDBRANCH   4   5
ENDBRANCH   3   4
ENDBRANCH   1   3
BRANCH   2  13
ATOM     13  C   UNL     1      10.273   4.631  56.167  1.00  0.00     0.027 C 
BRANCH  13  14
ATOM     14  C   UNL     1      11.647   4.283  56.753  1.00  0.00     0.004 C 
BRANCH  14  15
ATOM     15  C   UNL     1      12.476   3.395  55.809  1.00  0.00     0.000 C 
BRANCH  15  16
ATOM     16  C   UNL     1      13.834   2.989  56.410  1.00  0.00     0.000 C 
BRANCH  16  17
ATOM     17  C   UNL     1      15.067   3.377  55.568  1.00  0.00    -0.000 C 
BRANCH  17  18
ATOM     18  C   UNL     1      16.212   2.349  55.576  1.00  0.00    -0.000 C 
BRANCH  18  19
ATOM     19  C   UNL     1      15.897   1.116  56.436  1.00  0.00    -0.003 C 
ATOM     20  C   UNL     1      16.524  -0.143  55.843  1.00  0.00     0.004 C 
ENDBRANCH  18  19
ENDBRANCH  17  18
ENDBRANCH  16  17
ENDBRANCH  15  16
ENDBRANCH  14  15
ENDBRANCH  13  14
ENDBRANCH   2  13
TORSDOF 15
ENDMDL
MODEL 8
REMARK VINA RESULT:    -5.107      3.783      7.818
REMARK INTER + INTRA:         -11.877
REMARK INTER:                 -10.166
REMARK INTRA:                  -1.711
REMARK UNBOUND:                -2.292
REMARK SMILES CCCCCCCCC=CCCCCCCCC(=O)[O-]
REMARK SMILES IDX 10 1 9 2 11 3 12 4 13 5 14 6 15 7 16 8 17 9 18 10 19 11
REMARK SMILES IDX 20 12 8 13 7 14 6 15 5 16 4 17 3 18 2 19 1 20
REMARK H PARENT
REMARK Flexibility Score: inf
ROOT
ATOM      1  C   UNL     1      11.556   3.624  54.501  1.00  0.00    -0.031 C 
ATOM      2  C   UNL     1      12.236   4.063  55.571  1.00  0.00    -0.031 C 
ENDROOT
BRANCH   1   3
ATOM      3  C   UNL     1      11.720   4.264  53.150  1.00  0.00     0.027 C 
BRANCH   3   4
ATOM      4  C   UNL     1      12.501   5.584  53.254  1.00  0.00     0.004 C 
BRANCH   4   5
ATOM      5  C   UNL     1      11.609   6.817  53.042  1.00  0.00     0.000 C 
BRANCH   5   6
ATOM      6  C   UNL     1      11.246   7.516  54.361  1.00  0.00     0.000 C 
BRANCH   6   7
ATOM      7  C   UNL     1       9.816   7.159  54.797  1.00  0.00     0.000 C 
BRANCH   7   8
ATOM      8  C   UNL     1       8.929   8.399  54.993  1.00  0.00     0.006 C 
BRANCH   8   9
ATOM      9  C   UNL     1       7.853   8.534  53.907  1.00  0.00     0.053 C 
BRANCH   9  10
ATOM     10  C   UNL     1       8.443   9.103  52.655  1.00  0.00     0.041 C 
ATOM     11  O   UNL     1       9.296  10.027  52.720  1.00  0.00    -0.550 OA
ATOM     12  O   UNL     1       8.080   8.586  51.417  1.00  0.00    -0.550 OA
ENDBRANCH   9  10
ENDBRANCH   8   9
ENDBRANCH   7   8
ENDBRANCH   6   7
ENDBRANCH   5   6
ENDBRANCH   4   5
ENDBRANCH   3   4
ENDBRANCH   1   3
BRANCH   2  13
ATOM     13  C   UNL     1      12.030   3.465  56.939  1.00  0.00     0.027 C 
BRANCH  13  14
ATOM     14  C   UNL     1      12.681   2.081  57.051  1.00  0.00     0.004 C 
BRANCH  14  15
ATOM     15  C   UNL     1      13.252   1.818  58.455  1.00  0.00     0.000 C 
BRANCH  15  16
ATOM     16  C   UNL     1      14.589   1.054  58.423  1.00  0.00     0.000 C 
BRANCH  16  17
ATOM     17  C   UNL     1      15.014   0.534  57.034  1.00  0.00    -0.000 C 
BRANCH  17  18
ATOM     18  C   UNL     1      16.431   0.940  56.592  1.00  0.00    -0.000 C 
BRANCH  18  19
ATOM     19  C   UNL     1      16.432   1.813  55.329  1.00  0.00    -0.003 C 
ATOM     20  C   UNL     1      15.812   3.181  55.606  1.00  0.00     0.004 C 
ENDBRANCH  18  19
ENDBRANCH  17  18
ENDBRANCH  16  17
ENDBRANCH  15  16
ENDBRANCH  14  15
ENDBRANCH  13  14
ENDBRANCH   2  13
TORSDOF 15
ENDMDL
MODEL 9
REMARK VINA RESULT:    -5.102      2.302      3.634
REMARK INTER + INTRA:         -11.869
REMARK INTER:                 -10.018
REMARK INTRA:                  -1.851
REMARK UNBOUND:                -2.292
REMARK SMILES CCCCCCCCC=CCCCCCCCC(=O)[O-]
REMARK SMILES IDX 10 1 9 2 11 3 12 4 13 5 14 6 15 7 16 8 17 9 18 10 19 11
REMARK SMILES IDX 20 12 8 13 7 14 6 15 5 16 4 17 3 18 2 19 1 20
REMARK H PARENT
REMARK Flexibility Score: inf
ROOT
ATOM      1  C   UNL     1      10.166   5.547  55.671  1.00  0.00    -0.031 C 
ATOM      2  C   UNL     1       9.188   6.400  55.333  1.00  0.00    -0.031 C 
ENDROOT
BRANCH   1   3
ATOM      3  C   UNL     1      10.023   4.064  55.464  1.00  0.00     0.027 C 
BRANCH   3   4
ATOM      4  C   UNL     1      11.397   3.385  55.355  1.00  0.00     0.004 C 
BRANCH   4   5
ATOM      5  C   UNL     1      12.527   4.239  55.952  1.00  0.00     0.000 C 
BRANCH   5   6
ATOM      6  C   UNL     1      13.249   3.535  57.111  1.00  0.00     0.000 C 
BRANCH   6   7
ATOM      7  C   UNL     1      13.015   2.017  57.064  1.00  0.00     0.000 C 
BRANCH   7   8
ATOM      8  C   UNL     1      14.280   1.212  57.405  1.00  0.00     0.006 C 
BRANCH   8   9
ATOM      9  C   UNL     1      15.460   1.546  56.482  1.00  0.00     0.053 C 
BRANCH   9  10
ATOM     10  C   UNL     1      16.462   0.435  56.493  1.00  0.00     0.041 C 
ATOM     11  O   UNL     1      16.483  -0.408  55.558  1.00  0.00    -0.550 OA
ATOM     12  O   UNL     1      17.399   0.353  57.516  1.00  0.00    -0.550 OA
ENDBRANCH   9  10
ENDBRANCH   8   9
ENDBRANCH   7   8
ENDBRANCH   6   7
ENDBRANCH   5   6
ENDBRANCH   4   5
ENDBRANCH   3   4
ENDBRANCH   1   3
BRANCH   2  13
ATOM     13  C   UNL     1       9.301   7.879  55.595  1.00  0.00     0.027 C 
BRANCH  13  14
ATOM     14  C   UNL     1       8.096   8.643  55.033  1.00  0.00     0.004 C 
BRANCH  14  15
ATOM     15  C   UNL     1       7.987   8.517  53.504  1.00  0.00     0.000 C 
BRANCH  15  16
ATOM     16  C   UNL     1       8.933   9.475  52.757  1.00  0.00     0.000 C 
BRANCH  16  17
ATOM     17  C   UNL     1       9.740   8.838  51.608  1.00  0.00    -0.000 C 
BRANCH  17  18
ATOM     18  C   UNL     1      10.217   7.397  51.866  1.00  0.00    -0.000 C 
BRANCH  18  19
ATOM     19  C   UNL     1      11.486   7.338  52.728  1.00  0.00    -0.003 C 
ATOM     20  C   UNL     1      12.129   5.955  52.665  1.00  0.00     0.004 C 
ENDBRANCH  18  19
ENDBRANCH  17  18
ENDBRANCH  16  17
ENDBRANCH  15  16
ENDBRANCH  14  15
ENDBRANCH  13  14
ENDBRANCH   2  13
TORSDOF 15
ENDMDL
