MODEL 1
REMARK VINA RESULT:    19.042      0.000      0.000
REMARK INTER + INTRA:          42.200
REMARK INTER:                  43.532
REMARK INTRA:                  -1.332
REMARK UNBOUND:                -1.332
REMARK SMILES CCCCCCCCCCCCCCCCCCCCCCCC(=O)[O-]
REMARK SMILES IDX 13 1 14 2 15 3 16 4 17 5 18 6 19 7 20 8 21 9 22 10 23 11
REMARK SMILES IDX 24 12 25 13 26 14 12 15 11 16 10 17 9 18 8 19 7 20 6 21 5 22
REMARK SMILES IDX 4 23 3 24 2 25 1 26
REMARK H PARENT
REMARK Flexibility Score: inf
ROOT
ATOM      1  C   UNL     1      -8.328 -17.490  28.001  1.00  0.00     0.000 C 
ENDROOT
BRANCH   1   2
ATOM      2  C   UNL     1      -9.660 -16.725  27.912  1.00  0.00     0.000 C 
BRANCH   2   3
ATOM      3  C   UNL     1      -9.610 -15.559  26.908  1.00  0.00     0.000 C 
BRANCH   3   4
ATOM      4  C   UNL     1     -10.914 -14.743  26.793  1.00  0.00     0.000 C 
BRANCH   4   5
ATOM      5  C   UNL     1     -10.732 -13.257  26.437  1.00  0.00     0.000 C 
BRANCH   5   6
ATOM      6  C   UNL     1     -11.602 -12.326  27.298  1.00  0.00     0.000 C 
BRANCH   6   7
ATOM      7  C   UNL     1     -10.795 -11.199  27.969  1.00  0.00     0.000 C 
BRANCH   7   8
ATOM      8  C   UNL     1     -10.466  -9.995  27.064  1.00  0.00     0.000 C 
BRANCH   8   9
ATOM      9  C   UNL     1      -9.223  -9.217  27.528  1.00  0.00     0.000 C 
BRANCH   9  10
ATOM     10  C   UNL     1      -7.939  -9.659  26.802  1.00  0.00     0.006 C 
BRANCH  10  11
ATOM     11  C   UNL     1      -6.681  -9.668  27.687  1.00  0.00     0.053 C 
BRANCH  11  12
ATOM     12  C   UNL     1      -5.572 -10.471  27.079  1.00  0.00     0.041 C 
ATOM     13  O   UNL     1      -4.596 -10.840  27.784  1.00  0.00    -0.550 OA
ATOM     14  O   UNL     1      -5.604 -10.788  25.727  1.00  0.00    -0.550 OA
ENDBRANCH  11  12
ENDBRANCH  10  11
ENDBRANCH   9  10
ENDBRANCH   8   9
ENDBRANCH   7   8
ENDBRANCH   6   7
ENDBRANCH   5   6
ENDBRANCH   4   5
ENDBRANCH   3   4
ENDBRANCH   2   3
ENDBRANCH   1   2
BRANCH   1  15
ATOM     15  C   UNL     1      -7.430 -17.252  26.776  1.00  0.00     0.000 C 
BRANCH  15  16
ATOM     16  C   UNL     1      -6.072 -17.964  26.895  1.00  0.00     0.000 C 
BRANCH  16  17
ATOM     17  C   UNL     1      -5.770 -18.861  25.683  1.00  0.00     0.000 C 
BRANCH  17  18
ATOM     18  C   UNL     1      -6.049 -18.155  24.344  1.00  0.00    -0.000 C 
BRANCH  18  19
ATOM     19  C   UNL     1      -5.119 -18.635  23.218  1.00  0.00    -0.000 C 
BRANCH  19  20
ATOM     20  C   UNL     1      -4.301 -19.873  23.613  1.00  0.00    -0.000 C 
BRANCH  20  21
ATOM     21  C   UNL     1      -4.004 -20.746  22.387  1.00  0.00    -0.000 C 
BRANCH  21  22
ATOM     22  C   UNL     1      -2.504 -20.741  22.058  1.00  0.00    -0.000 C 
BRANCH  22  23
ATOM     23  C   UNL     1      -1.621 -20.679  23.316  1.00  0.00    -0.000 C 
BRANCH  23  24
ATOM     24  C   UNL     1      -0.920 -19.323  23.481  1.00  0.00    -0.000 C 
BRANCH  24  25
ATOM     25  C   UNL     1      -0.512 -19.091  24.941  1.00  0.00    -0.003 C 
ATOM     26  C   UNL     1      -1.315 -17.952  25.563  1.00  0.00     0.004 C 
ENDBRANCH  24  25
ENDBRANCH  23  24
ENDBRANCH  22  23
ENDBRANCH  21  22
ENDBRANCH  20  21
ENDBRANCH  19  20
ENDBRANCH  18  19
ENDBRANCH  17  18
ENDBRANCH  16  17
ENDBRANCH  15  16
ENDBRANCH   1  15
TORSDOF 22
ENDMDL
MODEL 2
REMARK VINA RESULT:    19.278      2.297      9.900
REMARK INTER + INTRA:          42.739
REMARK INTER:                  44.065
REMARK INTRA:                  -1.325
REMARK UNBOUND:                -1.332
REMARK SMILES CCCCCCCCCCCCCCCCCCCCCCCC(=O)[O-]
REMARK SMILES IDX 13 1 14 2 15 3 16 4 17 5 18 6 19 7 20 8 21 9 22 10 23 11
REMARK SMILES IDX 24 12 25 13 26 14 12 15 11 16 10 17 9 18 8 19 7 20 6 21 5 22
REMARK SMILES IDX 4 23 3 24 2 25 1 26
REMARK H PARENT
REMARK Flexibility Score: inf
ROOT
ATOM      1  C   UNL     1      -7.411 -17.062  26.889  1.00  0.00     0.000 C 
ENDROOT
BRANCH   1   2
ATOM      2  C   UNL     1      -6.136 -17.921  26.949  1.00  0.00     0.000 C 
BRANCH   2   3
ATOM      3  C   UNL     1      -5.994 -18.859  25.737  1.00  0.00     0.000 C 
BRANCH   3   4
ATOM      4  C   UNL     1      -6.116 -18.170  24.362  1.00  0.00     0.000 C 
BRANCH   4   5
ATOM      5  C   UNL     1      -5.108 -18.639  23.298  1.00  0.00     0.000 C 
BRANCH   5   6
ATOM      6  C   UNL     1      -4.561 -20.049  23.574  1.00  0.00     0.000 C 
BRANCH   6   7
ATOM      7  C   UNL     1      -3.830 -20.658  22.363  1.00  0.00     0.000 C 
BRANCH   7   8
ATOM      8  C   UNL     1      -2.332 -20.316  22.257  1.00  0.00     0.000 C 
BRANCH   8   9
ATOM      9  C   UNL     1      -1.477 -21.024  23.322  1.00  0.00     0.000 C 
BRANCH   9  10
ATOM     10  C   UNL     1      -0.719 -20.036  24.230  1.00  0.00     0.006 C 
BRANCH  10  11
ATOM     11  C   UNL     1      -0.308 -18.727  23.537  1.00  0.00     0.053 C 
BRANCH  11  12
ATOM     12  C   UNL     1      -0.538 -17.533  24.412  1.00  0.00     0.041 C 
ATOM     13  O   UNL     1      -1.219 -17.641  25.466  1.00  0.00    -0.550 OA
ATOM     14  O   UNL     1      -0.021 -16.295  24.050  1.00  0.00    -0.550 OA
ENDBRANCH  11  12
ENDBRANCH  10  11
ENDBRANCH   9  10
ENDBRANCH   8   9
ENDBRANCH   7   8
ENDBRANCH   6   7
ENDBRANCH   5   6
ENDBRANCH   4   5
ENDBRANCH   3   4
ENDBRANCH   2   3
ENDBRANCH   1   2
BRANCH   1  15
ATOM     15  C   UNL     1      -8.419 -17.427  27.991  1.00  0.00     0.000 C 
BRANCH  15  16
ATOM     16  C   UNL     1      -9.847 -16.962  27.658  1.00  0.00     0.000 C 
BRANCH  16  17
ATOM     17  C   UNL     1      -9.867 -15.686  26.802  1.00  0.00     0.000 C 
BRANCH  17  18
ATOM     18  C   UNL     1     -10.668 -14.547  27.460  1.00  0.00    -0.000 C 
BRANCH  18  19
ATOM     19  C   UNL     1     -10.942 -13.383  26.494  1.00  0.00    -0.000 C 
BRANCH  19  20
ATOM     20  C   UNL     1     -11.047 -12.030  27.213  1.00  0.00    -0.000 C 
BRANCH  20  21
ATOM     21  C   UNL     1     -10.004 -11.042  26.677  1.00  0.00    -0.000 C 
BRANCH  21  22
ATOM     22  C   UNL     1      -9.998  -9.747  27.502  1.00  0.00    -0.000 C 
BRANCH  22  23
ATOM     23  C   UNL     1      -8.593  -9.138  27.640  1.00  0.00    -0.000 C 
BRANCH  23  24
ATOM     24  C   UNL     1      -7.622  -9.638  26.560  1.00  0.00    -0.000 C 
BRANCH  24  25
ATOM     25  C   UNL     1      -6.273 -10.029  27.174  1.00  0.00    -0.003 C 
ATOM     26  C   UNL     1      -5.531 -11.023  26.286  1.00  0.00     0.004 C 
ENDBRANCH  24  25
ENDBRANCH  23  24
ENDBRANCH  22  23
ENDBRANCH  21  22
ENDBRANCH  20  21
ENDBRANCH  19  20
ENDBRANCH  18  19
ENDBRANCH  17  18
ENDBRANCH  16  17
ENDBRANCH  15  16
ENDBRANCH   1  15
TORSDOF 22
ENDMDL
MODEL 3
REMARK VINA RESULT:    19.352      2.349      9.810
REMARK INTER + INTRA:          42.909
REMARK INTER:                  44.123
REMARK INTRA:                  -1.214
REMARK UNBOUND:                -1.332
REMARK SMILES CCCCCCCCCCCCCCCCCCCCCCCC(=O)[O-]
REMARK SMILES IDX 13 1 14 2 15 3 16 4 17 5 18 6 19 7 20 8 21 9 22 10 23 11
REMARK SMILES IDX 24 12 25 13 26 14 12 15 11 16 10 17 9 18 8 19 7 20 6 21 5 22
REMARK SMILES IDX 4 23 3 24 2 25 1 26
REMARK H PARENT
REMARK Flexibility Score: inf
ROOT
ATOM      1  C   UNL     1      -8.213 -17.570  27.959  1.00  0.00     0.000 C 
ENDROOT
BRANCH   1   2
ATOM      2  C   UNL     1      -7.218 -17.158  26.860  1.00  0.00     0.000 C 
BRANCH   2   3
ATOM      3  C   UNL     1      -5.970 -18.058  26.820  1.00  0.00     0.000 C 
BRANCH   3   4
ATOM      4  C   UNL     1      -5.799 -18.876  25.524  1.00  0.00     0.000 C 
BRANCH   4   5
ATOM      5  C   UNL     1      -5.802 -18.057  24.222  1.00  0.00     0.000 C 
BRANCH   5   6
ATOM      6  C   UNL     1      -5.183 -18.817  23.037  1.00  0.00     0.000 C 
BRANCH   6   7
ATOM      7  C   UNL     1      -4.469 -20.113  23.462  1.00  0.00     0.000 C 
BRANCH   7   8
ATOM      8  C   UNL     1      -3.694 -20.836  22.343  1.00  0.00     0.000 C 
BRANCH   8   9
ATOM      9  C   UNL     1      -2.205 -21.035  22.675  1.00  0.00     0.000 C 
BRANCH   9  10
ATOM     10  C   UNL     1      -1.430 -19.705  22.755  1.00  0.00     0.006 C 
BRANCH  10  11
ATOM     11  C   UNL     1      -0.699 -19.477  24.089  1.00  0.00     0.053 C 
BRANCH  11  12
ATOM     12  C   UNL     1      -0.656 -18.028  24.465  1.00  0.00     0.041 C 
ATOM     13  O   UNL     1      -0.066 -17.198  23.723  1.00  0.00    -0.550 OA
ATOM     14  O   UNL     1      -1.245 -17.598  25.647  1.00  0.00    -0.550 OA
ENDBRANCH  11  12
ENDBRANCH  10  11
ENDBRANCH   9  10
ENDBRANCH   8   9
ENDBRANCH   7   8
ENDBRANCH   6   7
ENDBRANCH   5   6
ENDBRANCH   4   5
ENDBRANCH   3   4
ENDBRANCH   2   3
ENDBRANCH   1   2
BRANCH   1  15
ATOM     15  C   UNL     1      -9.543 -16.805  27.866  1.00  0.00     0.000 C 
BRANCH  15  16
ATOM     16  C   UNL     1      -9.474 -15.622  26.885  1.00  0.00     0.000 C 
BRANCH  16  17
ATOM     17  C   UNL     1     -10.813 -14.876  26.767  1.00  0.00     0.000 C 
BRANCH  17  18
ATOM     18  C   UNL     1     -10.630 -13.393  26.396  1.00  0.00    -0.000 C 
BRANCH  18  19
ATOM     19  C   UNL     1     -11.550 -12.464  27.204  1.00  0.00    -0.000 C 
BRANCH  19  20
ATOM     20  C   UNL     1     -10.774 -11.392  27.982  1.00  0.00    -0.000 C 
BRANCH  20  21
ATOM     21  C   UNL     1     -10.584 -10.129  27.132  1.00  0.00    -0.000 C 
BRANCH  21  22
ATOM     22  C   UNL     1      -9.304  -9.381  27.537  1.00  0.00    -0.000 C 
BRANCH  22  23
ATOM     23  C   UNL     1      -8.140  -9.628  26.563  1.00  0.00    -0.000 C 
BRANCH  23  24
ATOM     24  C   UNL     1      -6.785  -9.736  27.276  1.00  0.00    -0.000 C 
BRANCH  24  25
ATOM     25  C   UNL     1      -5.800 -10.578  26.457  1.00  0.00    -0.003 C 
ATOM     26  C   UNL     1      -4.871 -11.379  27.365  1.00  0.00     0.004 C 
ENDBRANCH  24  25
ENDBRANCH  23  24
ENDBRANCH  22  23
ENDBRANCH  21  22
ENDBRANCH  20  21
ENDBRANCH  19  20
ENDBRANCH  18  19
ENDBRANCH  17  18
ENDBRANCH  16  17
ENDBRANCH  15  16
ENDBRANCH   1  15
TORSDOF 22
ENDMDL
MODEL 4
REMARK VINA RESULT:    19.833      0.950      2.355
REMARK INTER + INTRA:          44.007
REMARK INTER:                  45.091
REMARK INTRA:                  -1.084
REMARK UNBOUND:                -1.332
REMARK SMILES CCCCCCCCCCCCCCCCCCCCCCCC(=O)[O-]
REMARK SMILES IDX 13 1 14 2 15 3 16 4 17 5 18 6 19 7 20 8 21 9 22 10 23 11
REMARK SMILES IDX 24 12 25 13 26 14 12 15 11 16 10 17 9 18 8 19 7 20 6 21 5 22
REMARK SMILES IDX 4 23 3 24 2 25 1 26
REMARK H PARENT
REMARK Flexibility Score: inf
ROOT
ATOM      1  C   UNL     1      -8.510 -17.792  27.949  1.00  0.00     0.000 C 
ENDROOT
BRANCH   1   2
ATOM      2  C   UNL     1      -9.795 -16.955  27.823  1.00  0.00     0.000 C 
BRANCH   2   3
ATOM      3  C   UNL     1      -9.586 -15.664  27.011  1.00  0.00     0.000 C 
BRANCH   3   4
ATOM      4  C   UNL     1     -10.879 -14.905  26.651  1.00  0.00     0.000 C 
BRANCH   4   5
ATOM      5  C   UNL     1     -10.726 -13.382  26.485  1.00  0.00     0.000 C 
BRANCH   5   6
ATOM      6  C   UNL     1     -11.694 -12.585  27.375  1.00  0.00     0.000 C 
BRANCH   6   7
ATOM      7  C   UNL     1     -11.105 -11.246  27.855  1.00  0.00     0.000 C 
BRANCH   7   8
ATOM      8  C   UNL     1      -9.966 -10.677  26.987  1.00  0.00     0.000 C 
BRANCH   8   9
ATOM      9  C   UNL     1      -9.373  -9.375  27.552  1.00  0.00     0.000 C 
BRANCH   9  10
ATOM     10  C   UNL     1      -7.965  -9.075  27.003  1.00  0.00     0.006 C 
BRANCH  10  11
ATOM     11  C   UNL     1      -6.818  -9.613  27.874  1.00  0.00     0.053 C 
BRANCH  11  12
ATOM     12  C   UNL     1      -5.821 -10.392  27.070  1.00  0.00     0.041 C 
ATOM     13  O   UNL     1      -5.977 -10.529  25.828  1.00  0.00    -0.550 OA
ATOM     14  O   UNL     1      -4.734 -10.987  27.699  1.00  0.00    -0.550 OA
ENDBRANCH  11  12
ENDBRANCH  10  11
ENDBRANCH   9  10
ENDBRANCH   8   9
ENDBRANCH   7   8
ENDBRANCH   6   7
ENDBRANCH   5   6
ENDBRANCH   4   5
ENDBRANCH   3   4
ENDBRANCH   2   3
ENDBRANCH   1   2
BRANCH   1  15
ATOM     15  C   UNL     1      -7.332 -17.184  27.168  1.00  0.00     0.000 C 
BRANCH  15  16
ATOM     16  C   UNL     1      -6.870 -18.081  26.008  1.00  0.00     0.000 C 
BRANCH  16  17
ATOM     17  C   UNL     1      -5.348 -18.293  25.998  1.00  0.00     0.000 C 
BRANCH  17  18
ATOM     18  C   UNL     1      -4.698 -17.964  27.354  1.00  0.00    -0.000 C 
BRANCH  18  19
ATOM     19  C   UNL     1      -3.203 -17.631  27.228  1.00  0.00    -0.000 C 
BRANCH  19  20
ATOM     20  C   UNL     1      -2.688 -17.755  25.787  1.00  0.00    -0.000 C 
BRANCH  20  21
ATOM     21  C   UNL     1      -1.174 -18.003  25.765  1.00  0.00    -0.000 C 
BRANCH  21  22
ATOM     22  C   UNL     1      -0.565 -17.562  24.426  1.00  0.00    -0.000 C 
BRANCH  22  23
ATOM     23  C   UNL     1      -0.430 -18.721  23.425  1.00  0.00    -0.000 C 
BRANCH  23  24
ATOM     24  C   UNL     1      -1.501 -19.804  23.627  1.00  0.00    -0.000 C 
BRANCH  24  25
ATOM     25  C   UNL     1      -1.956 -20.382  22.282  1.00  0.00    -0.003 C 
ATOM     26  C   UNL     1      -3.398 -20.876  22.354  1.00  0.00     0.004 C 
ENDBRANCH  24  25
ENDBRANCH  23  24
ENDBRANCH  22  23
ENDBRANCH  21  22
ENDBRANCH  20  21
ENDBRANCH  19  20
ENDBRANCH  18  19
ENDBRANCH  17  18
ENDBRANCH  16  17
ENDBRANCH  15  16
ENDBRANCH   1  15
TORSDOF 22
ENDMDL
MODEL 5
REMARK VINA RESULT:    19.972      3.006     10.111
REMARK INTER + INTRA:          44.326
REMARK INTER:                  45.360
REMARK INTRA:                  -1.034
REMARK UNBOUND:                -1.332
REMARK SMILES CCCCCCCCCCCCCCCCCCCCCCCC(=O)[O-]
REMARK SMILES IDX 13 1 14 2 15 3 16 4 17 5 18 6 19 7 20 8 21 9 22 10 23 11
REMARK SMILES IDX 24 12 25 13 26 14 12 15 11 16 10 17 9 18 8 19 7 20 6 21 5 22
REMARK SMILES IDX 4 23 3 24 2 25 1 26
REMARK H PARENT
REMARK Flexibility Score: inf
ROOT
ATOM      1  C   UNL     1      -8.154 -18.011  27.453  1.00  0.00     0.000 C 
ENDROOT
BRANCH   1   2
ATOM      2  C   UNL     1      -7.118 -17.426  26.477  1.00  0.00     0.000 C 
BRANCH   2   3
ATOM      3  C   UNL     1      -5.773 -18.172  26.522  1.00  0.00     0.000 C 
BRANCH   3   4
ATOM      4  C   UNL     1      -4.701 -17.528  27.425  1.00  0.00     0.000 C 
BRANCH   4   5
ATOM      5  C   UNL     1      -3.267 -18.044  27.217  1.00  0.00     0.000 C 
BRANCH   5   6
ATOM      6  C   UNL     1      -2.758 -17.832  25.782  1.00  0.00     0.000 C 
BRANCH   6   7
ATOM      7  C   UNL     1      -1.221 -17.783  25.690  1.00  0.00     0.000 C 
BRANCH   7   8
ATOM      8  C   UNL     1      -0.652 -17.554  24.276  1.00  0.00     0.000 C 
BRANCH   8   9
ATOM      9  C   UNL     1      -0.297 -18.864  23.552  1.00  0.00     0.000 C 
BRANCH   9  10
ATOM     10  C   UNL     1      -1.415 -19.919  23.648  1.00  0.00     0.006 C 
BRANCH  10  11
ATOM     11  C   UNL     1      -2.202 -20.128  22.343  1.00  0.00     0.053 C 
BRANCH  11  12
ATOM     12  C   UNL     1      -3.645 -20.437  22.602  1.00  0.00     0.041 C 
ATOM     13  O   UNL     1      -4.123 -21.555  22.274  1.00  0.00    -0.550 OA
ATOM     14  O   UNL     1      -4.469 -19.479  23.181  1.00  0.00    -0.550 OA
ENDBRANCH  11  12
ENDBRANCH  10  11
ENDBRANCH   9  10
ENDBRANCH   8   9
ENDBRANCH   7   8
ENDBRANCH   6   7
ENDBRANCH   5   6
ENDBRANCH   4   5
ENDBRANCH   3   4
ENDBRANCH   2   3
ENDBRANCH   1   2
BRANCH   1  15
ATOM     15  C   UNL     1      -9.172 -16.962  27.929  1.00  0.00     0.000 C 
BRANCH  15  16
ATOM     16  C   UNL     1      -9.358 -15.820  26.916  1.00  0.00     0.000 C 
BRANCH  16  17
ATOM     17  C   UNL     1     -10.601 -14.966  27.212  1.00  0.00     0.000 C 
BRANCH  17  18
ATOM     18  C   UNL     1     -10.681 -13.713  26.321  1.00  0.00    -0.000 C 
BRANCH  18  19
ATOM     19  C   UNL     1     -11.566 -12.612  26.927  1.00  0.00    -0.000 C 
BRANCH  19  20
ATOM     20  C   UNL     1     -10.767 -11.604  27.764  1.00  0.00    -0.000 C 
BRANCH  20  21
ATOM     21  C   UNL     1     -10.131 -10.531  26.870  1.00  0.00    -0.000 C 
BRANCH  21  22
ATOM     22  C   UNL     1      -9.811  -9.263  27.675  1.00  0.00    -0.000 C 
BRANCH  22  23
ATOM     23  C   UNL     1      -8.305  -8.960  27.731  1.00  0.00    -0.000 C 
BRANCH  23  24
ATOM     24  C   UNL     1      -7.513  -9.687  26.634  1.00  0.00    -0.000 C 
BRANCH  24  25
ATOM     25  C   UNL     1      -6.163 -10.179  27.167  1.00  0.00    -0.003 C 
ATOM     26  C   UNL     1      -5.467 -11.084  26.155  1.00  0.00     0.004 C 
ENDBRANCH  24  25
ENDBRANCH  23  24
ENDBRANCH  22  23
ENDBRANCH  21  22
ENDBRANCH  20  21
ENDBRANCH  19  20
ENDBRANCH  18  19
ENDBRANCH  17  18
ENDBRANCH  16  17
ENDBRANCH  15  16
ENDBRANCH   1  15
TORSDOF 22
ENDMDL
MODEL 6
REMARK VINA RESULT:    20.936      2.476     10.083
REMARK INTER + INTRA:          46.531
REMARK INTER:                  47.428
REMARK INTRA:                  -0.897
REMARK UNBOUND:                -1.332
REMARK SMILES CCCCCCCCCCCCCCCCCCCCCCCC(=O)[O-]
REMARK SMILES IDX 13 1 14 2 15 3 16 4 17 5 18 6 19 7 20 8 21 9 22 10 23 11
REMARK SMILES IDX 24 12 25 13 26 14 12 15 11 16 10 17 9 18 8 19 7 20 6 21 5 22
REMARK SMILES IDX 4 23 3 24 2 25 1 26
REMARK H PARENT
REMARK Flexibility Score: inf
ROOT
ATOM      1  C   UNL     1      -5.561 -18.120  26.702  1.00  0.00     0.000 C 
ENDROOT
BRANCH   1   2
ATOM      2  C   UNL     1      -5.984 -18.641  25.317  1.00  0.00     0.000 C 
BRANCH   2   3
ATOM      3  C   UNL     1      -4.876 -19.455  24.625  1.00  0.00     0.000 C 
BRANCH   3   4
ATOM      4  C   UNL     1      -4.713 -19.181  23.116  1.00  0.00     0.000 C 
BRANCH   4   5
ATOM      5  C   UNL     1      -4.394 -20.414  22.253  1.00  0.00     0.000 C 
BRANCH   5   6
ATOM      6  C   UNL     1      -3.628 -21.501  23.025  1.00  0.00     0.000 C 
BRANCH   6   7
ATOM      7  C   UNL     1      -2.099 -21.355  22.910  1.00  0.00     0.000 C 
BRANCH   7   8
ATOM      8  C   UNL     1      -1.553 -19.933  23.141  1.00  0.00     0.000 C 
BRANCH   8   9
ATOM      9  C   UNL     1      -0.396 -19.891  24.154  1.00  0.00     0.000 C 
BRANCH   9  10
ATOM     10  C   UNL     1      -0.658 -18.913  25.316  1.00  0.00     0.006 C 
BRANCH  10  11
ATOM     11  C   UNL     1      -1.172 -17.531  24.878  1.00  0.00     0.053 C 
BRANCH  11  12
ATOM     12  C   UNL     1      -0.140 -16.769  24.103  1.00  0.00     0.041 C 
ATOM     13  O   UNL     1       0.309 -15.680  24.549  1.00  0.00    -0.550 OA
ATOM     14  O   UNL     1       0.305 -17.248  22.878  1.00  0.00    -0.550 OA
ENDBRANCH  11  12
ENDBRANCH  10  11
ENDBRANCH   9  10
ENDBRANCH   8   9
ENDBRANCH   7   8
ENDBRANCH   6   7
ENDBRANCH   5   6
ENDBRANCH   4   5
ENDBRANCH   3   4
ENDBRANCH   2   3
ENDBRANCH   1   2
BRANCH   1  15
ATOM     15  C   UNL     1      -6.696 -17.371  27.421  1.00  0.00     0.000 C 
BRANCH  15  16
ATOM     16  C   UNL     1      -8.076 -17.668  26.809  1.00  0.00     0.000 C 
BRANCH  16  17
ATOM     17  C   UNL     1      -9.174 -17.808  27.876  1.00  0.00     0.000 C 
BRANCH  17  18
ATOM     18  C   UNL     1      -9.993 -16.516  28.050  1.00  0.00    -0.000 C 
BRANCH  18  19
ATOM     19  C   UNL     1      -9.640 -15.446  27.004  1.00  0.00    -0.000 C 
BRANCH  19  20
ATOM     20  C   UNL     1     -10.882 -14.757  26.421  1.00  0.00    -0.000 C 
BRANCH  20  21
ATOM     21  C   UNL     1     -10.703 -13.233  26.399  1.00  0.00    -0.000 C 
BRANCH  21  22
ATOM     22  C   UNL     1     -11.511 -12.569  27.523  1.00  0.00    -0.000 C 
BRANCH  22  23
ATOM     23  C   UNL     1     -10.923 -11.215  27.956  1.00  0.00    -0.000 C 
BRANCH  23  24
ATOM     24  C   UNL     1     -10.131 -10.528  26.834  1.00  0.00    -0.000 C 
BRANCH  24  25
ATOM     25  C   UNL     1      -9.620  -9.155  27.286  1.00  0.00    -0.003 C 
ATOM     26  C   UNL     1      -8.128  -9.199  27.601  1.00  0.00     0.004 C 
ENDBRANCH  24  25
ENDBRANCH  23  24
ENDBRANCH  22  23
ENDBRANCH  21  22
ENDBRANCH  20  21
ENDBRANCH  19  20
ENDBRANCH  18  19
ENDBRANCH  17  18
ENDBRANCH  16  17
ENDBRANCH  15  16
ENDBRANCH   1  15
TORSDOF 22
ENDMDL
MODEL 7
REMARK VINA RESULT:    21.269      3.037     10.282
REMARK INTER + INTRA:          47.292
REMARK INTER:                  48.113
REMARK INTRA:                  -0.821
REMARK UNBOUND:                -1.332
REMARK SMILES CCCCCCCCCCCCCCCCCCCCCCCC(=O)[O-]
REMARK SMILES IDX 13 1 14 2 15 3 16 4 17 5 18 6 19 7 20 8 21 9 22 10 23 11
REMARK SMILES IDX 24 12 25 13 26 14 12 15 11 16 10 17 9 18 8 19 7 20 6 21 5 22
REMARK SMILES IDX 4 23 3 24 2 25 1 26
REMARK H PARENT
REMARK Flexibility Score: inf
ROOT
ATOM      1  C   UNL     1      -6.985 -18.263  26.159  1.00  0.00     0.000 C 
ENDROOT
BRANCH   1   2
ATOM      2  C   UNL     1      -5.460 -18.403  26.011  1.00  0.00     0.000 C 
BRANCH   2   3
ATOM      3  C   UNL     1      -4.693 -17.879  27.239  1.00  0.00     0.000 C 
BRANCH   3   4
ATOM      4  C   UNL     1      -3.161 -18.037  27.165  1.00  0.00     0.000 C 
BRANCH   4   5
ATOM      5  C   UNL     1      -2.473 -17.269  26.023  1.00  0.00     0.000 C 
BRANCH   5   6
ATOM      6  C   UNL     1      -1.079 -17.823  25.686  1.00  0.00     0.000 C 
BRANCH   6   7
ATOM      7  C   UNL     1      -0.583 -17.395  24.292  1.00  0.00     0.000 C 
BRANCH   7   8
ATOM      8  C   UNL     1      -0.372 -18.543  23.286  1.00  0.00     0.000 C 
BRANCH   8   9
ATOM      9  C   UNL     1      -1.123 -19.829  23.676  1.00  0.00     0.000 C 
BRANCH   9  10
ATOM     10  C   UNL     1      -1.659 -20.598  22.454  1.00  0.00     0.006 C 
BRANCH  10  11
ATOM     11  C   UNL     1      -2.901 -21.459  22.742  1.00  0.00     0.053 C 
BRANCH  11  12
ATOM     12  C   UNL     1      -4.174 -20.721  22.462  1.00  0.00     0.041 C 
ATOM     13  O   UNL     1      -4.434 -19.651  23.074  1.00  0.00    -0.550 OA
ATOM     14  O   UNL     1      -5.084 -21.227  21.543  1.00  0.00    -0.550 OA
ENDBRANCH  11  12
ENDBRANCH  10  11
ENDBRANCH   9  10
ENDBRANCH   8   9
ENDBRANCH   7   8
ENDBRANCH   6   7
ENDBRANCH   5   6
ENDBRANCH   4   5
ENDBRANCH   3   4
ENDBRANCH   2   3
ENDBRANCH   1   2
BRANCH   1  15
ATOM     15  C   UNL     1      -7.395 -16.915  26.775  1.00  0.00     0.000 C 
BRANCH  15  16
ATOM     16  C   UNL     1      -8.091 -17.079  28.137  1.00  0.00     0.000 C 
BRANCH  16  17
ATOM     17  C   UNL     1      -9.571 -17.471  27.999  1.00  0.00     0.000 C 
BRANCH  17  18
ATOM     18  C   UNL     1     -10.324 -16.583  26.992  1.00  0.00    -0.000 C 
BRANCH  18  19
ATOM     19  C   UNL     1      -9.946 -15.098  27.114  1.00  0.00    -0.000 C 
BRANCH  19  20
ATOM     20  C   UNL     1     -10.898 -14.180  26.334  1.00  0.00    -0.000 C 
BRANCH  20  21
ATOM     21  C   UNL     1     -11.170 -12.886  27.112  1.00  0.00    -0.000 C 
BRANCH  21  22
ATOM     22  C   UNL     1     -10.159 -11.793  26.735  1.00  0.00    -0.000 C 
BRANCH  22  23
ATOM     23  C   UNL     1     -10.449 -10.451  27.427  1.00  0.00    -0.000 C 
BRANCH  23  24
ATOM     24  C   UNL     1      -9.579  -9.307  26.887  1.00  0.00    -0.000 C 
BRANCH  24  25
ATOM     25  C   UNL     1      -8.294  -9.161  27.710  1.00  0.00    -0.003 C 
ATOM     26  C   UNL     1      -7.118  -9.852  27.024  1.00  0.00     0.004 C 
ENDBRANCH  24  25
ENDBRANCH  23  24
ENDBRANCH  22  23
ENDBRANCH  21  22
ENDBRANCH  20  21
ENDBRANCH  19  20
ENDBRANCH  18  19
ENDBRANCH  17  18
ENDBRANCH  16  17
ENDBRANCH  15  16
ENDBRANCH   1  15
TORSDOF 22
ENDMDL
