MODEL 1
REMARK VINA RESULT:    -3.191      0.000      0.000
REMARK INTER + INTRA:          -8.555
REMARK INTER:                  -6.922
REMARK INTRA:                  -1.634
REMARK UNBOUND:                -1.634
REMARK SMILES CCCCCCCCCCCCCCCCCCCCCC(=O)[O-]
REMARK SMILES IDX 12 1 11 2 10 3 9 4 8 5 7 6 6 7 5 8 4 9 3 10 2 11 1 12 13 13
REMARK SMILES IDX 14 14 15 15 16 16 17 17 18 18 19 19 20 20 21 21 22 22 23 23
REMARK SMILES IDX 24 24
REMARK H PARENT
REMARK Flexibility Score: inf
ROOT
ATOM      1  C   UNL     1      24.460  32.810  34.688  1.00  0.00     0.000 C 
ENDROOT
BRANCH   1   2
ATOM      2  C   UNL     1      25.520  33.223  33.646  1.00  0.00     0.000 C 
BRANCH   2   3
ATOM      3  C   UNL     1      25.193  32.838  32.189  1.00  0.00     0.000 C 
BRANCH   3   4
ATOM      4  C   UNL     1      25.693  33.836  31.126  1.00  0.00    -0.000 C 
BRANCH   4   5
ATOM      5  C   UNL     1      27.215  33.814  30.877  1.00  0.00    -0.000 C 
BRANCH   5   6
ATOM      6  C   UNL     1      28.080  34.129  32.110  1.00  0.00    -0.000 C 
BRANCH   6   7
ATOM      7  C   UNL     1      28.195  35.635  32.390  1.00  0.00    -0.000 C 
BRANCH   7   8
ATOM      8  C   UNL     1      27.036  36.120  33.270  1.00  0.00    -0.000 C 
BRANCH   8   9
ATOM      9  C   UNL     1      26.605  37.541  32.877  1.00  0.00    -0.000 C 
BRANCH   9  10
ATOM     10  C   UNL     1      26.962  38.585  33.946  1.00  0.00    -0.000 C 
BRANCH  10  11
ATOM     11  C   UNL     1      26.959  40.019  33.395  1.00  0.00    -0.003 C 
ATOM     12  C   UNL     1      25.657  40.737  33.738  1.00  0.00     0.004 C 
ENDBRANCH  10  11
ENDBRANCH   9  10
ENDBRANCH   8   9
ENDBRANCH   7   8
ENDBRANCH   6   7
ENDBRANCH   5   6
ENDBRANCH   4   5
ENDBRANCH   3   4
ENDBRANCH   2   3
ENDBRANCH   1   2
BRANCH   1  13
ATOM     13  C   UNL     1      24.418  33.678  35.959  1.00  0.00     0.000 C 
BRANCH  13  14
ATOM     14  C   UNL     1      25.745  33.668  36.734  1.00  0.00     0.000 C 
BRANCH  14  15
ATOM     15  C   UNL     1      26.306  32.249  36.925  1.00  0.00     0.000 C 
BRANCH  15  16
ATOM     16  C   UNL     1      27.831  32.181  36.754  1.00  0.00     0.000 C 
BRANCH  16  17
ATOM     17  C   UNL     1      28.315  33.225  35.740  1.00  0.00     0.000 C 
BRANCH  17  18
ATOM     18  C   UNL     1      29.837  33.400  35.811  1.00  0.00     0.000 C 
BRANCH  18  19
ATOM     19  C   UNL     1      30.556  32.071  35.539  1.00  0.00     0.000 C 
BRANCH  19  20
ATOM     20  C   UNL     1      30.264  31.512  34.135  1.00  0.00     0.006 C 
BRANCH  20  21
ATOM     21  C   UNL     1      30.064  29.989  34.092  1.00  0.00     0.053 C 
BRANCH  21  22
ATOM     22  C   UNL     1      30.371  29.419  32.740  1.00  0.00     0.041 C 
ATOM     23  O   UNL     1      30.762  30.173  31.810  1.00  0.00    -0.550 OA
ATOM     24  O   UNL     1      30.200  28.061  32.501  1.00  0.00    -0.550 OA
ENDBRANCH  21  22
ENDBRANCH  20  21
ENDBRANCH  19  20
ENDBRANCH  18  19
ENDBRANCH  17  18
ENDBRANCH  16  17
ENDBRANCH  15  16
ENDBRANCH  14  15
ENDBRANCH  13  14
ENDBRANCH   1  13
TORSDOF 20
ENDMDL
MODEL 2
REMARK VINA RESULT:    -2.558      3.910      8.413
REMARK INTER + INTRA:          -7.183
REMARK INTER:                  -6.059
REMARK INTRA:                  -1.124
REMARK UNBOUND:                -1.634
REMARK SMILES CCCCCCCCCCCCCCCCCCCCCC(=O)[O-]
REMARK SMILES IDX 12 1 11 2 10 3 9 4 8 5 7 6 6 7 5 8 4 9 3 10 2 11 1 12 13 13
REMARK SMILES IDX 14 14 15 15 16 16 17 17 18 18 19 19 20 20 21 21 22 22 23 23
REMARK SMILES IDX 24 24
REMARK H PARENT
REMARK Flexibility Score: inf
ROOT
ATOM      1  C   UNL     1      24.542  32.847  34.507  1.00  0.00     0.000 C 
ENDROOT
BRANCH   1   2
ATOM      2  C   UNL     1      24.725  33.421  35.927  1.00  0.00     0.000 C 
BRANCH   2   3
ATOM      3  C   UNL     1      26.126  33.986  36.231  1.00  0.00     0.000 C 
BRANCH   3   4
ATOM      4  C   UNL     1      27.221  32.924  36.450  1.00  0.00    -0.000 C 
BRANCH   4   5
ATOM      5  C   UNL     1      28.647  33.369  36.067  1.00  0.00    -0.000 C 
BRANCH   5   6
ATOM      6  C   UNL     1      29.631  32.221  35.778  1.00  0.00    -0.000 C 
BRANCH   6   7
ATOM      7  C   UNL     1      29.611  31.775  34.308  1.00  0.00    -0.000 C 
BRANCH   7   8
ATOM      8  C   UNL     1      30.830  30.903  33.982  1.00  0.00    -0.000 C 
BRANCH   8   9
ATOM      9  C   UNL     1      31.020  29.805  35.040  1.00  0.00    -0.000 C 
BRANCH   9  10
ATOM     10  C   UNL     1      30.140  28.574  34.779  1.00  0.00    -0.000 C 
BRANCH  10  11
ATOM     11  C   UNL     1      30.780  27.272  35.284  1.00  0.00    -0.003 C 
ATOM     12  C   UNL     1      29.909  26.064  34.946  1.00  0.00     0.004 C 
ENDBRANCH  10  11
ENDBRANCH   9  10
ENDBRANCH   8   9
ENDBRANCH   7   8
ENDBRANCH   6   7
ENDBRANCH   5   6
ENDBRANCH   4   5
ENDBRANCH   3   4
ENDBRANCH   2   3
ENDBRANCH   1   2
BRANCH   1  13
ATOM     13  C   UNL     1      25.702  33.127  33.533  1.00  0.00     0.000 C 
BRANCH  13  14
ATOM     14  C   UNL     1      25.309  32.920  32.061  1.00  0.00     0.000 C 
BRANCH  14  15
ATOM     15  C   UNL     1      26.220  33.691  31.093  1.00  0.00     0.000 C 
BRANCH  15  16
ATOM     16  C   UNL     1      26.305  35.190  31.417  1.00  0.00     0.000 C 
BRANCH  16  17
ATOM     17  C   UNL     1      27.447  35.474  32.401  1.00  0.00     0.000 C 
BRANCH  17  18
ATOM     18  C   UNL     1      26.991  36.419  33.519  1.00  0.00     0.000 C 
BRANCH  18  19
ATOM     19  C   UNL     1      26.659  37.810  32.960  1.00  0.00     0.000 C 
BRANCH  19  20
ATOM     20  C   UNL     1      26.976  38.943  33.953  1.00  0.00     0.006 C 
BRANCH  20  21
ATOM     21  C   UNL     1      26.724  40.355  33.401  1.00  0.00     0.053 C 
BRANCH  21  22
ATOM     22  C   UNL     1      25.502  40.983  34.001  1.00  0.00     0.041 C 
ATOM     23  O   UNL     1      24.977  40.486  35.031  1.00  0.00    -0.550 OA
ATOM     24  O   UNL     1      24.931  42.101  33.406  1.00  0.00    -0.550 OA
ENDBRANCH  21  22
ENDBRANCH  20  21
ENDBRANCH  19  20
ENDBRANCH  18  19
ENDBRANCH  17  18
ENDBRANCH  16  17
ENDBRANCH  15  16
ENDBRANCH  14  15
ENDBRANCH  13  14
ENDBRANCH   1  13
TORSDOF 20
ENDMDL
MODEL 3
REMARK VINA RESULT:    -2.478      3.920      7.862
REMARK INTER + INTRA:          -7.010
REMARK INTER:                  -4.744
REMARK INTRA:                  -2.266
REMARK UNBOUND:                -1.634
REMARK SMILES CCCCCCCCCCCCCCCCCCCCCC(=O)[O-]
REMARK SMILES IDX 12 1 11 2 10 3 9 4 8 5 7 6 6 7 5 8 4 9 3 10 2 11 1 12 13 13
REMARK SMILES IDX 14 14 15 15 16 16 17 17 18 18 19 19 20 20 21 21 22 22 23 23
REMARK SMILES IDX 24 24
REMARK H PARENT
REMARK Flexibility Score: inf
ROOT
ATOM      1  C   UNL     1      30.528  31.086  33.050  1.00  0.00     0.000 C 
ENDROOT
BRANCH   1   2
ATOM      2  C   UNL     1      30.313  29.645  32.543  1.00  0.00     0.000 C 
BRANCH   2   3
ATOM      3  C   UNL     1      30.650  28.534  33.557  1.00  0.00     0.000 C 
BRANCH   3   4
ATOM      4  C   UNL     1      31.071  29.036  34.952  1.00  0.00    -0.000 C 
BRANCH   4   5
ATOM      5  C   UNL     1      29.995  28.898  36.048  1.00  0.00    -0.000 C 
BRANCH   5   6
ATOM      6  C   UNL     1      29.967  30.040  37.079  1.00  0.00    -0.000 C 
BRANCH   6   7
ATOM      7  C   UNL     1      28.616  30.770  37.125  1.00  0.00    -0.000 C 
BRANCH   7   8
ATOM      8  C   UNL     1      28.810  32.290  37.056  1.00  0.00    -0.000 C 
BRANCH   8   9
ATOM      9  C   UNL     1      27.461  33.009  36.902  1.00  0.00    -0.000 C 
BRANCH   9  10
ATOM     10  C   UNL     1      26.455  32.207  36.064  1.00  0.00    -0.000 C 
BRANCH  10  11
ATOM     11  C   UNL     1      25.497  33.107  35.269  1.00  0.00    -0.003 C 
ATOM     12  C   UNL     1      25.554  34.547  35.769  1.00  0.00     0.004 C 
ENDBRANCH  10  11
ENDBRANCH   9  10
ENDBRANCH   8   9
ENDBRANCH   7   8
ENDBRANCH   6   7
ENDBRANCH   5   6
ENDBRANCH   4   5
ENDBRANCH   3   4
ENDBRANCH   2   3
ENDBRANCH   1   2
BRANCH   1  13
ATOM     13  C   UNL     1      29.290  31.750  33.680  1.00  0.00     0.000 C 
BRANCH  13  14
ATOM     14  C   UNL     1      29.160  33.238  33.318  1.00  0.00     0.000 C 
BRANCH  14  15
ATOM     15  C   UNL     1      28.397  33.462  32.003  1.00  0.00     0.000 C 
BRANCH  15  16
ATOM     16  C   UNL     1      27.017  34.104  32.215  1.00  0.00     0.000 C 
BRANCH  16  17
ATOM     17  C   UNL     1      27.053  35.601  31.884  1.00  0.00     0.000 C 
BRANCH  17  18
ATOM     18  C   UNL     1      27.139  36.446  33.161  1.00  0.00     0.000 C 
BRANCH  18  19
ATOM     19  C   UNL     1      26.423  37.792  32.978  1.00  0.00     0.000 C 
BRANCH  19  20
ATOM     20  C   UNL     1      27.000  38.902  33.875  1.00  0.00     0.006 C 
BRANCH  20  21
ATOM     21  C   UNL     1      26.707  40.327  33.382  1.00  0.00     0.053 C 
BRANCH  21  22
ATOM     22  C   UNL     1      25.478  40.901  34.018  1.00  0.00     0.041 C 
ATOM     23  O   UNL     1      24.964  40.339  35.021  1.00  0.00    -0.550 OA
ATOM     24  O   UNL     1      24.887  42.042  33.488  1.00  0.00    -0.550 OA
ENDBRANCH  21  22
ENDBRANCH  20  21
ENDBRANCH  19  20
ENDBRANCH  18  19
ENDBRANCH  17  18
ENDBRANCH  16  17
ENDBRANCH  15  16
ENDBRANCH  14  15
ENDBRANCH  13  14
ENDBRANCH   1  13
TORSDOF 20
ENDMDL
MODEL 4
REMARK VINA RESULT:    -2.291      2.800      3.943
REMARK INTER + INTRA:          -6.603
REMARK INTER:                  -4.657
REMARK INTRA:                  -1.945
REMARK UNBOUND:                -1.634
REMARK SMILES CCCCCCCCCCCCCCCCCCCCCC(=O)[O-]
REMARK SMILES IDX 12 1 11 2 10 3 9 4 8 5 7 6 6 7 5 8 4 9 3 10 2 11 1 12 13 13
REMARK SMILES IDX 14 14 15 15 16 16 17 17 18 18 19 19 20 20 21 21 22 22 23 23
REMARK SMILES IDX 24 24
REMARK H PARENT
REMARK Flexibility Score: inf
ROOT
ATOM      1  C   UNL     1      25.779  34.635  35.038  1.00  0.00     0.000 C 
ENDROOT
BRANCH   1   2
ATOM      2  C   UNL     1      26.773  35.390  34.132  1.00  0.00     0.000 C 
BRANCH   2   3
ATOM      3  C   UNL     1      27.555  34.508  33.139  1.00  0.00     0.000 C 
BRANCH   3   4
ATOM      4  C   UNL     1      27.603  35.043  31.694  1.00  0.00    -0.000 C 
BRANCH   4   5
ATOM      5  C   UNL     1      27.336  33.991  30.599  1.00  0.00    -0.000 C 
BRANCH   5   6
ATOM      6  C   UNL     1      25.855  33.628  30.394  1.00  0.00    -0.000 C 
BRANCH   6   7
ATOM      7  C   UNL     1      24.998  34.834  29.978  1.00  0.00    -0.000 C 
BRANCH   7   8
ATOM      8  C   UNL     1      24.521  34.694  28.526  1.00  0.00    -0.000 C 
BRANCH   8   9
ATOM      9  C   UNL     1      23.555  35.829  28.154  1.00  0.00    -0.000 C 
BRANCH   9  10
ATOM     10  C   UNL     1      23.368  35.972  26.636  1.00  0.00    -0.000 C 
BRANCH  10  11
ATOM     11  C   UNL     1      22.421  37.124  26.263  1.00  0.00    -0.003 C 
ATOM     12  C   UNL     1      22.986  38.467  26.717  1.00  0.00     0.004 C 
ENDBRANCH  10  11
ENDBRANCH   9  10
ENDBRANCH   8   9
ENDBRANCH   7   8
ENDBRANCH   6   7
ENDBRANCH   5   6
ENDBRANCH   4   5
ENDBRANCH   3   4
ENDBRANCH   2   3
ENDBRANCH   1   2
BRANCH   1  13
ATOM     13  C   UNL     1      25.807  33.101  34.907  1.00  0.00     0.000 C 
BRANCH  13  14
ATOM     14  C   UNL     1      26.066  32.392  36.246  1.00  0.00     0.000 C 
BRANCH  14  15
ATOM     15  C   UNL     1      27.249  31.413  36.177  1.00  0.00     0.000 C 
BRANCH  15  16
ATOM     16  C   UNL     1      28.397  31.794  37.124  1.00  0.00     0.000 C 
BRANCH  16  17
ATOM     17  C   UNL     1      28.998  33.151  36.737  1.00  0.00     0.000 C 
BRANCH  17  18
ATOM     18  C   UNL     1      29.870  33.030  35.481  1.00  0.00     0.000 C 
BRANCH  18  19
ATOM     19  C   UNL     1      30.853  31.858  35.606  1.00  0.00     0.000 C 
BRANCH  19  20
ATOM     20  C   UNL     1      30.938  31.011  34.323  1.00  0.00     0.006 C 
BRANCH  20  21
ATOM     21  C   UNL     1      29.831  29.954  34.191  1.00  0.00     0.053 C 
BRANCH  21  22
ATOM     22  C   UNL     1      30.137  28.716  34.978  1.00  0.00     0.041 C 
ATOM     23  O   UNL     1      30.202  28.766  36.234  1.00  0.00    -0.550 OA
ATOM     24  O   UNL     1      30.376  27.515  34.322  1.00  0.00    -0.550 OA
ENDBRANCH  21  22
ENDBRANCH  20  21
ENDBRANCH  19  20
ENDBRANCH  18  19
ENDBRANCH  17  18
ENDBRANCH  16  17
ENDBRANCH  15  16
ENDBRANCH  14  15
ENDBRANCH  13  14
ENDBRANCH   1  13
TORSDOF 20
ENDMDL
MODEL 5
REMARK VINA RESULT:    -2.289      4.606      8.927
REMARK INTER + INTRA:          -6.600
REMARK INTER:                  -4.675
REMARK INTRA:                  -1.925
REMARK UNBOUND:                -1.634
REMARK SMILES CCCCCCCCCCCCCCCCCCCCCC(=O)[O-]
REMARK SMILES IDX 12 1 11 2 10 3 9 4 8 5 7 6 6 7 5 8 4 9 3 10 2 11 1 12 13 13
REMARK SMILES IDX 14 14 15 15 16 16 17 17 18 18 19 19 20 20 21 21 22 22 23 23
REMARK SMILES IDX 24 24
REMARK H PARENT
REMARK Flexibility Score: inf
ROOT
ATOM      1  C   UNL     1      25.905  33.268  34.266  1.00  0.00     0.000 C 
ENDROOT
BRANCH   1   2
ATOM      2  C   UNL     1      26.601  32.426  35.355  1.00  0.00     0.000 C 
BRANCH   2   3
ATOM      3  C   UNL     1      27.082  33.216  36.588  1.00  0.00     0.000 C 
BRANCH   3   4
ATOM      4  C   UNL     1      28.599  33.144  36.854  1.00  0.00    -0.000 C 
BRANCH   4   5
ATOM      5  C   UNL     1      29.487  33.250  35.599  1.00  0.00    -0.000 C 
BRANCH   5   6
ATOM      6  C   UNL     1      30.602  32.194  35.500  1.00  0.00    -0.000 C 
BRANCH   6   7
ATOM      7  C   UNL     1      30.389  31.208  34.340  1.00  0.00    -0.000 C 
BRANCH   7   8
ATOM      8  C   UNL     1      29.451  30.067  34.754  1.00  0.00    -0.000 C 
BRANCH   8   9
ATOM      9  C   UNL     1      29.733  29.621  36.197  1.00  0.00    -0.000 C 
BRANCH   9  10
ATOM     10  C   UNL     1      30.379  28.229  36.269  1.00  0.00    -0.000 C 
BRANCH  10  11
ATOM     11  C   UNL     1      30.405  27.517  34.908  1.00  0.00    -0.003 C 
ATOM     12  C   UNL     1      29.930  26.072  35.035  1.00  0.00     0.004 C 
ENDBRANCH  10  11
ENDBRANCH   9  10
ENDBRANCH   8   9
ENDBRANCH   7   8
ENDBRANCH   6   7
ENDBRANCH   5   6
ENDBRANCH   4   5
ENDBRANCH   3   4
ENDBRANCH   2   3
ENDBRANCH   1   2
BRANCH   1  13
ATOM     13  C   UNL     1      26.380  34.730  34.165  1.00  0.00     0.000 C 
BRANCH  13  14
ATOM     14  C   UNL     1      27.456  34.935  33.087  1.00  0.00     0.000 C 
BRANCH  14  15
ATOM     15  C   UNL     1      26.857  35.158  31.689  1.00  0.00     0.000 C 
BRANCH  15  16
ATOM     16  C   UNL     1      26.823  33.877  30.842  1.00  0.00     0.000 C 
BRANCH  16  17
ATOM     17  C   UNL     1      25.473  33.727  30.129  1.00  0.00     0.000 C 
BRANCH  17  18
ATOM     18  C   UNL     1      24.964  35.081  29.620  1.00  0.00     0.000 C 
BRANCH  18  19
ATOM     19  C   UNL     1      24.062  34.902  28.391  1.00  0.00     0.000 C 
BRANCH  19  20
ATOM     20  C   UNL     1      24.158  36.080  27.404  1.00  0.00     0.006 C 
BRANCH  20  21
ATOM     21  C   UNL     1      22.887  36.312  26.573  1.00  0.00     0.053 C 
BRANCH  21  22
ATOM     22  C   UNL     1      22.597  37.770  26.383  1.00  0.00     0.041 C 
ATOM     23  O   UNL     1      23.338  38.636  26.917  1.00  0.00    -0.550 OA
ATOM     24  O   UNL     1      21.494  38.170  25.639  1.00  0.00    -0.550 OA
ENDBRANCH  21  22
ENDBRANCH  20  21
ENDBRANCH  19  20
ENDBRANCH  18  19
ENDBRANCH  17  18
ENDBRANCH  16  17
ENDBRANCH  15  16
ENDBRANCH  14  15
ENDBRANCH  13  14
ENDBRANCH   1  13
TORSDOF 20
ENDMDL
MODEL 6
REMARK VINA RESULT:    -2.269      4.227      8.094
REMARK INTER + INTRA:          -6.556
REMARK INTER:                  -4.387
REMARK INTRA:                  -2.169
REMARK UNBOUND:                -1.634
REMARK SMILES CCCCCCCCCCCCCCCCCCCCCC(=O)[O-]
REMARK SMILES IDX 12 1 11 2 10 3 9 4 8 5 7 6 6 7 5 8 4 9 3 10 2 11 1 12 13 13
REMARK SMILES IDX 14 14 15 15 16 16 17 17 18 18 19 19 20 20 21 21 22 22 23 23
REMARK SMILES IDX 24 24
REMARK H PARENT
REMARK Flexibility Score: inf
ROOT
ATOM      1  C   UNL     1      26.053  34.620  34.006  1.00  0.00     0.000 C 
ENDROOT
BRANCH   1   2
ATOM      2  C   UNL     1      25.869  34.750  35.532  1.00  0.00     0.000 C 
BRANCH   2   3
ATOM      3  C   UNL     1      25.623  33.424  36.279  1.00  0.00     0.000 C 
BRANCH   3   4
ATOM      4  C   UNL     1      25.954  32.154  35.472  1.00  0.00    -0.000 C 
BRANCH   4   5
ATOM      5  C   UNL     1      27.330  31.528  35.777  1.00  0.00    -0.000 C 
BRANCH   5   6
ATOM      6  C   UNL     1      28.338  32.473  36.454  1.00  0.00    -0.000 C 
BRANCH   6   7
ATOM      7  C   UNL     1      29.220  33.226  35.446  1.00  0.00    -0.000 C 
BRANCH   7   8
ATOM      8  C   UNL     1      30.695  32.837  35.607  1.00  0.00    -0.000 C 
BRANCH   8   9
ATOM      9  C   UNL     1      30.992  31.505  34.902  1.00  0.00    -0.000 C 
BRANCH   9  10
ATOM     10  C   UNL     1      30.189  31.330  33.605  1.00  0.00    -0.000 C 
BRANCH  10  11
ATOM     11  C   UNL     1      30.742  30.208  32.714  1.00  0.00    -0.003 C 
ATOM     12  C   UNL     1      30.273  28.839  33.200  1.00  0.00     0.004 C 
ENDBRANCH  10  11
ENDBRANCH   9  10
ENDBRANCH   8   9
ENDBRANCH   7   8
ENDBRANCH   6   7
ENDBRANCH   5   6
ENDBRANCH   4   5
ENDBRANCH   3   4
ENDBRANCH   2   3
ENDBRANCH   1   2
BRANCH   1  13
ATOM     13  C   UNL     1      26.833  35.769  33.341  1.00  0.00     0.000 C 
BRANCH  13  14
ATOM     14  C   UNL     1      28.122  35.295  32.651  1.00  0.00     0.000 C 
BRANCH  14  15
ATOM     15  C   UNL     1      27.979  33.898  32.027  1.00  0.00     0.000 C 
BRANCH  15  16
ATOM     16  C   UNL     1      27.494  33.940  30.570  1.00  0.00     0.000 C 
BRANCH  16  17
ATOM     17  C   UNL     1      26.014  33.547  30.475  1.00  0.00     0.000 C 
BRANCH  17  18
ATOM     18  C   UNL     1      25.147  34.751  30.086  1.00  0.00     0.000 C 
BRANCH  18  19
ATOM     19  C   UNL     1      24.393  34.484  28.776  1.00  0.00     0.000 C 
BRANCH  19  20
ATOM     20  C   UNL     1      23.643  35.724  28.256  1.00  0.00     0.006 C 
BRANCH  20  21
ATOM     21  C   UNL     1      23.522  35.793  26.726  1.00  0.00     0.053 C 
BRANCH  21  22
ATOM     22  C   UNL     1      22.682  36.950  26.279  1.00  0.00     0.041 C 
ATOM     23  O   UNL     1      22.820  38.078  26.821  1.00  0.00    -0.550 OA
ATOM     24  O   UNL     1      21.729  36.776  25.283  1.00  0.00    -0.550 OA
ENDBRANCH  21  22
ENDBRANCH  20  21
ENDBRANCH  19  20
ENDBRANCH  18  19
ENDBRANCH  17  18
ENDBRANCH  16  17
ENDBRANCH  15  16
ENDBRANCH  14  15
ENDBRANCH  13  14
ENDBRANCH   1  13
TORSDOF 20
ENDMDL
MODEL 7
REMARK VINA RESULT:    -2.084      2.413      4.019
REMARK INTER + INTRA:          -6.154
REMARK INTER:                  -4.592
REMARK INTRA:                  -1.561
REMARK UNBOUND:                -1.634
REMARK SMILES CCCCCCCCCCCCCCCCCCCCCC(=O)[O-]
REMARK SMILES IDX 12 1 11 2 10 3 9 4 8 5 7 6 6 7 5 8 4 9 3 10 2 11 1 12 13 13
REMARK SMILES IDX 14 14 15 15 16 16 17 17 18 18 19 19 20 20 21 21 22 22 23 23
REMARK SMILES IDX 24 24
REMARK H PARENT
REMARK Flexibility Score: inf
ROOT
ATOM      1  C   UNL     1      25.847  33.236  34.457  1.00  0.00     0.000 C 
ENDROOT
BRANCH   1   2
ATOM      2  C   UNL     1      26.327  34.700  34.535  1.00  0.00     0.000 C 
BRANCH   2   3
ATOM      3  C   UNL     1      26.639  35.362  33.178  1.00  0.00     0.000 C 
BRANCH   3   4
ATOM      4  C   UNL     1      28.055  35.091  32.634  1.00  0.00    -0.000 C 
BRANCH   4   5
ATOM      5  C   UNL     1      28.127  34.068  31.482  1.00  0.00    -0.000 C 
BRANCH   5   6
ATOM      6  C   UNL     1      26.765  33.632  30.914  1.00  0.00    -0.000 C 
BRANCH   6   7
ATOM      7  C   UNL     1      26.070  34.742  30.111  1.00  0.00    -0.000 C 
BRANCH   7   8
ATOM      8  C   UNL     1      24.759  34.237  29.497  1.00  0.00    -0.000 C 
BRANCH   8   9
ATOM      9  C   UNL     1      23.978  35.388  28.845  1.00  0.00    -0.000 C 
BRANCH   9  10
ATOM     10  C   UNL     1      23.720  35.155  27.349  1.00  0.00    -0.000 C 
BRANCH  10  11
ATOM     11  C   UNL     1      23.321  36.442  26.609  1.00  0.00    -0.003 C 
ATOM     12  C   UNL     1      22.156  36.189  25.656  1.00  0.00     0.004 C 
ENDBRANCH  10  11
ENDBRANCH   9  10
ENDBRANCH   8   9
ENDBRANCH   7   8
ENDBRANCH   6   7
ENDBRANCH   5   6
ENDBRANCH   4   5
ENDBRANCH   3   4
ENDBRANCH   2   3
ENDBRANCH   1   2
BRANCH   1  13
ATOM     13  C   UNL     1      26.469  32.287  35.498  1.00  0.00     0.000 C 
BRANCH  13  14
ATOM     14  C   UNL     1      27.047  33.029  36.713  1.00  0.00     0.000 C 
BRANCH  14  15
ATOM     15  C   UNL     1      28.532  32.711  36.948  1.00  0.00     0.000 C 
BRANCH  15  16
ATOM     16  C   UNL     1      29.435  33.184  35.798  1.00  0.00     0.000 C 
BRANCH  16  17
ATOM     17  C   UNL     1      30.460  32.106  35.428  1.00  0.00     0.000 C 
BRANCH  17  18
ATOM     18  C   UNL     1      30.000  30.721  35.897  1.00  0.00     0.000 C 
BRANCH  18  19
ATOM     19  C   UNL     1      30.824  29.612  35.228  1.00  0.00     0.000 C 
BRANCH  19  20
ATOM     20  C   UNL     1      30.004  28.786  34.220  1.00  0.00     0.006 C 
BRANCH  20  21
ATOM     21  C   UNL     1      30.821  28.240  33.039  1.00  0.00     0.053 C 
BRANCH  21  22
ATOM     22  C   UNL     1      30.713  29.115  31.827  1.00  0.00     0.041 C 
ATOM     23  O   UNL     1      30.684  28.602  30.678  1.00  0.00    -0.550 OA
ATOM     24  O   UNL     1      30.669  30.496  31.967  1.00  0.00    -0.550 OA
ENDBRANCH  21  22
ENDBRANCH  20  21
ENDBRANCH  19  20
ENDBRANCH  18  19
ENDBRANCH  17  18
ENDBRANCH  16  17
ENDBRANCH  15  16
ENDBRANCH  14  15
ENDBRANCH  13  14
ENDBRANCH   1  13
TORSDOF 20
ENDMDL
MODEL 8
REMARK VINA RESULT:    -2.046      2.580      6.310
REMARK INTER + INTRA:          -6.073
REMARK INTER:                  -5.346
REMARK INTRA:                  -0.727
REMARK UNBOUND:                -1.634
REMARK SMILES CCCCCCCCCCCCCCCCCCCCCC(=O)[O-]
REMARK SMILES IDX 12 1 11 2 10 3 9 4 8 5 7 6 6 7 5 8 4 9 3 10 2 11 1 12 13 13
REMARK SMILES IDX 14 14 15 15 16 16 17 17 18 18 19 19 20 20 21 21 22 22 23 23
REMARK SMILES IDX 24 24
REMARK H PARENT
REMARK Flexibility Score: inf
ROOT
ATOM      1  C   UNL     1      25.082  33.224  34.324  1.00  0.00     0.000 C 
ENDROOT
BRANCH   1   2
ATOM      2  C   UNL     1      24.810  33.785  35.735  1.00  0.00     0.000 C 
BRANCH   2   3
ATOM      3  C   UNL     1      25.228  32.864  36.899  1.00  0.00     0.000 C 
BRANCH   3   4
ATOM      4  C   UNL     1      26.748  32.752  37.125  1.00  0.00    -0.000 C 
BRANCH   4   5
ATOM      5  C   UNL     1      27.312  31.319  37.070  1.00  0.00    -0.000 C 
BRANCH   5   6
ATOM      6  C   UNL     1      28.849  31.224  37.055  1.00  0.00    -0.000 C 
BRANCH   6   7
ATOM      7  C   UNL     1      29.502  32.281  36.151  1.00  0.00    -0.000 C 
BRANCH   7   8
ATOM      8  C   UNL     1      30.943  31.889  35.800  1.00  0.00    -0.000 C 
BRANCH   8   9
ATOM      9  C   UNL     1      31.068  31.538  34.309  1.00  0.00    -0.000 C 
BRANCH   9  10
ATOM     10  C   UNL     1      29.932  30.628  33.818  1.00  0.00    -0.000 C 
BRANCH  10  11
ATOM     11  C   UNL     1      30.404  29.192  33.539  1.00  0.00    -0.003 C 
ATOM     12  C   UNL     1      30.053  28.263  34.698  1.00  0.00     0.004 C 
ENDBRANCH  10  11
ENDBRANCH   9  10
ENDBRANCH   8   9
ENDBRANCH   7   8
ENDBRANCH   6   7
ENDBRANCH   5   6
ENDBRANCH   4   5
ENDBRANCH   3   4
ENDBRANCH   2   3
ENDBRANCH   1   2
BRANCH   1  13
ATOM     13  C   UNL     1      26.546  32.838  34.043  1.00  0.00     0.000 C 
BRANCH  13  14
ATOM     14  C   UNL     1      27.423  34.047  33.682  1.00  0.00     0.000 C 
BRANCH  14  15
ATOM     15  C   UNL     1      26.610  35.215  33.101  1.00  0.00     0.000 C 
BRANCH  15  16
ATOM     16  C   UNL     1      26.776  35.361  31.580  1.00  0.00     0.000 C 
BRANCH  16  17
ATOM     17  C   UNL     1      27.077  34.006  30.930  1.00  0.00     0.000 C 
BRANCH  17  18
ATOM     18  C   UNL     1      28.528  33.581  31.184  1.00  0.00     0.000 C 
BRANCH  18  19
ATOM     19  C   UNL     1      29.119  32.880  29.952  1.00  0.00     0.000 C 
BRANCH  19  20
ATOM     20  C   UNL     1      30.394  32.079  30.276  1.00  0.00     0.006 C 
BRANCH  20  21
ATOM     21  C   UNL     1      30.794  31.066  29.193  1.00  0.00     0.053 C 
BRANCH  21  22
ATOM     22  C   UNL     1      30.638  31.627  27.812  1.00  0.00     0.041 C 
ATOM     23  O   UNL     1      30.303  30.876  26.858  1.00  0.00    -0.550 OA
ATOM     24  O   UNL     1      30.887  32.973  27.574  1.00  0.00    -0.550 OA
ENDBRANCH  21  22
ENDBRANCH  20  21
ENDBRANCH  19  20
ENDBRANCH  18  19
ENDBRANCH  17  18
ENDBRANCH  16  17
ENDBRANCH  15  16
ENDBRANCH  14  15
ENDBRANCH  13  14
ENDBRANCH   1  13
TORSDOF 20
ENDMDL
MODEL 9
REMARK VINA RESULT:    -2.007      2.385      5.019
REMARK INTER + INTRA:          -5.988
REMARK INTER:                  -4.967
REMARK INTRA:                  -1.021
REMARK UNBOUND:                -1.634
REMARK SMILES CCCCCCCCCCCCCCCCCCCCCC(=O)[O-]
REMARK SMILES IDX 12 1 11 2 10 3 9 4 8 5 7 6 6 7 5 8 4 9 3 10 2 11 1 12 13 13
REMARK SMILES IDX 14 14 15 15 16 16 17 17 18 18 19 19 20 20 21 21 22 22 23 23
REMARK SMILES IDX 24 24
REMARK H PARENT
REMARK Flexibility Score: inf
ROOT
ATOM      1  C   UNL     1      25.224  34.000  36.421  1.00  0.00     0.000 C 
ENDROOT
BRANCH   1   2
ATOM      2  C   UNL     1      25.661  34.969  35.302  1.00  0.00     0.000 C 
BRANCH   2   3
ATOM      3  C   UNL     1      26.218  34.296  34.032  1.00  0.00     0.000 C 
BRANCH   3   4
ATOM      4  C   UNL     1      26.965  35.241  33.071  1.00  0.00    -0.000 C 
BRANCH   4   5
ATOM      5  C   UNL     1      28.290  34.686  32.511  1.00  0.00    -0.000 C 
BRANCH   5   6
ATOM      6  C   UNL     1      28.186  33.303  31.844  1.00  0.00    -0.000 C 
BRANCH   6   7
ATOM      7  C   UNL     1      29.188  33.118  30.694  1.00  0.00    -0.000 C 
BRANCH   7   8
ATOM      8  C   UNL     1      30.091  31.903  30.942  1.00  0.00    -0.000 C 
BRANCH   8   9
ATOM      9  C   UNL     1      31.124  31.748  29.816  1.00  0.00    -0.000 C 
BRANCH   9  10
ATOM     10  C   UNL     1      31.123  30.339  29.203  1.00  0.00    -0.000 C 
BRANCH  10  11
ATOM     11  C   UNL     1      30.992  30.360  27.672  1.00  0.00    -0.003 C 
ATOM     12  C   UNL     1      30.161  31.554  27.208  1.00  0.00     0.004 C 
ENDBRANCH  10  11
ENDBRANCH   9  10
ENDBRANCH   8   9
ENDBRANCH   7   8
ENDBRANCH   6   7
ENDBRANCH   5   6
ENDBRANCH   4   5
ENDBRANCH   3   4
ENDBRANCH   2   3
ENDBRANCH   1   2
BRANCH   1  13
ATOM     13  C   UNL     1      25.856  32.598  36.357  1.00  0.00     0.000 C 
BRANCH  13  14
ATOM     14  C   UNL     1      27.255  32.543  36.991  1.00  0.00     0.000 C 
BRANCH  14  15
ATOM     15  C   UNL     1      28.253  33.486  36.300  1.00  0.00     0.000 C 
BRANCH  15  16
ATOM     16  C   UNL     1      29.697  33.287  36.786  1.00  0.00     0.000 C 
BRANCH  16  17
ATOM     17  C   UNL     1      30.092  31.806  36.737  1.00  0.00     0.000 C 
BRANCH  17  18
ATOM     18  C   UNL     1      29.627  31.153  35.430  1.00  0.00     0.000 C 
BRANCH  18  19
ATOM     19  C   UNL     1      30.768  31.103  34.404  1.00  0.00     0.000 C 
BRANCH  19  20
ATOM     20  C   UNL     1      31.119  29.668  33.972  1.00  0.00     0.006 C 
BRANCH  20  21
ATOM     21  C   UNL     1      30.050  28.622  34.328  1.00  0.00     0.053 C 
BRANCH  21  22
ATOM     22  C   UNL     1      30.609  27.232  34.353  1.00  0.00     0.041 C 
ATOM     23  O   UNL     1      30.975  26.679  33.282  1.00  0.00    -0.550 OA
ATOM     24  O   UNL     1      30.702  26.540  35.553  1.00  0.00    -0.550 OA
ENDBRANCH  21  22
ENDBRANCH  20  21
ENDBRANCH  19  20
ENDBRANCH  18  19
ENDBRANCH  17  18
ENDBRANCH  16  17
ENDBRANCH  15  16
ENDBRANCH  14  15
ENDBRANCH  13  14
ENDBRANCH   1  13
TORSDOF 20
ENDMDL
