MODEL 1
REMARK VINA RESULT:    -5.831      0.000      0.000
REMARK INTER + INTRA:          -7.115
REMARK INTER:                  -6.853
REMARK INTRA:                  -0.262
REMARK UNBOUND:                -0.262
REMARK SMILES O=c1c(O)c(-c2ccc(O)cc2)oc2cc(O)cc(O)c12
REMARK SMILES IDX 5 1 3 2 2 3 1 4 21 5 19 6 18 7 16 8 15 9 14 10 13 11 6 12
REMARK SMILES IDX 7 13 8 14 9 15 12 16 11 17 10 18 4 20 20 22 17 24
REMARK H PARENT 10 19 4 21 20 23 17 25
REMARK Flexibility Score: inf
ROOT
ATOM      1  C   UNL     1      -3.225  14.088 -27.051  1.00  0.00     0.180 A 
ATOM      2  C   UNL     1      -4.043  13.070 -26.523  1.00  0.00     0.208 A 
ATOM      3  C   UNL     1      -4.523  12.072 -27.383  1.00  0.00     0.238 A 
ATOM      4  O   UNL     1      -5.265  11.161 -26.924  1.00  0.00    -0.285 OA
ATOM      5  C   UNL     1      -4.164  12.094 -28.747  1.00  0.00     0.111 A 
ATOM      6  C   UNL     1      -4.603  11.123 -29.679  1.00  0.00     0.134 A 
ATOM      7  C   UNL     1      -4.195  11.210 -31.018  1.00  0.00     0.093 A 
ATOM      8  C   UNL     1      -3.356  12.249 -31.442  1.00  0.00     0.123 A 
ATOM      9  C   UNL     1      -2.922  13.208 -30.526  1.00  0.00     0.094 A 
ATOM     10  C   UNL     1      -3.320  13.140 -29.187  1.00  0.00     0.146 A 
ATOM     11  O   UNL     1      -2.895  14.069 -28.339  1.00  0.00    -0.452 OA
ENDROOT
BRANCH   1  12
ATOM     12  C   UNL     1      -2.694  15.186 -26.211  1.00  0.00     0.021 A 
ATOM     13  C   UNL     1      -3.274  16.468 -26.228  1.00  0.00     0.016 A 
ATOM     14  C   UNL     1      -2.741  17.496 -25.444  1.00  0.00     0.047 A 
ATOM     15  C   UNL     1      -1.614  17.260 -24.646  1.00  0.00     0.115 A 
ATOM     16  C   UNL     1      -1.551  14.965 -25.424  1.00  0.00     0.016 A 
ATOM     17  C   UNL     1      -1.021  15.995 -24.641  1.00  0.00     0.047 A 
BRANCH  15  18
ATOM     18  O   UNL     1      -1.075  18.277 -23.861  1.00  0.00    -0.508 OA
ATOM     19  H   UNL     1      -0.549  18.073 -23.019  1.00  0.00     0.293 HD
ENDBRANCH  15  18
ENDBRANCH   1  12
BRANCH   2  20
ATOM     20  O   UNL     1      -4.342  13.043 -25.158  1.00  0.00    -0.502 OA
ATOM     21  H   UNL     1      -4.845  13.793 -24.698  1.00  0.00     0.293 HD
ENDBRANCH   2  20
BRANCH   6  22
ATOM     22  O   UNL     1      -5.439  10.077 -29.287  1.00  0.00    -0.507 OA
ATOM     23  H   UNL     1      -5.186   9.446 -28.535  1.00  0.00     0.293 HD
ENDBRANCH   6  22
BRANCH   8  24
ATOM     24  O   UNL     1      -2.950  12.334 -32.771  1.00  0.00    -0.508 OA
ATOM     25  H   UNL     1      -3.586  12.627 -33.503  1.00  0.00     0.293 HD
ENDBRANCH   8  24
TORSDOF 5
ENDMDL
MODEL 2
REMARK VINA RESULT:    -5.637      2.573      6.783
REMARK INTER + INTRA:          -6.887
REMARK INTER:                  -6.649
REMARK INTRA:                  -0.238
REMARK UNBOUND:                -0.262
REMARK SMILES O=c1c(O)c(-c2ccc(O)cc2)oc2cc(O)cc(O)c12
REMARK SMILES IDX 5 1 3 2 2 3 1 4 21 5 19 6 18 7 16 8 15 9 14 10 13 11 6 12
REMARK SMILES IDX 7 13 8 14 9 15 12 16 11 17 10 18 4 20 20 22 17 24
REMARK H PARENT 10 19 4 21 20 23 17 25
REMARK Flexibility Score: inf
ROOT
ATOM      1  C   UNL     1      -3.905  14.834 -26.655  1.00  0.00     0.180 A 
ATOM      2  C   UNL     1      -4.186  15.599 -27.803  1.00  0.00     0.208 A 
ATOM      3  C   UNL     1      -3.543  16.835 -27.968  1.00  0.00     0.238 A 
ATOM      4  O   UNL     1      -3.795  17.535 -28.987  1.00  0.00    -0.285 OA
ATOM      5  C   UNL     1      -2.620  17.276 -26.997  1.00  0.00     0.111 A 
ATOM      6  C   UNL     1      -1.928  18.508 -27.090  1.00  0.00     0.134 A 
ATOM      7  C   UNL     1      -1.018  18.872 -26.086  1.00  0.00     0.093 A 
ATOM      8  C   UNL     1      -0.787  18.028 -24.994  1.00  0.00     0.123 A 
ATOM      9  C   UNL     1      -1.468  16.813 -24.898  1.00  0.00     0.094 A 
ATOM     10  C   UNL     1      -2.381  16.434 -25.887  1.00  0.00     0.146 A 
ATOM     11  O   UNL     1      -3.017  15.275 -25.768  1.00  0.00    -0.452 OA
ENDROOT
BRANCH   1  12
ATOM     12  C   UNL     1      -4.556  13.528 -26.401  1.00  0.00     0.021 A 
ATOM     13  C   UNL     1      -4.165  12.366 -27.092  1.00  0.00     0.016 A 
ATOM     14  C   UNL     1      -4.811  11.150 -26.851  1.00  0.00     0.047 A 
ATOM     15  C   UNL     1      -5.864  11.082 -25.930  1.00  0.00     0.115 A 
ATOM     16  C   UNL     1      -5.627  13.455 -25.494  1.00  0.00     0.016 A 
ATOM     17  C   UNL     1      -6.270  12.237 -25.256  1.00  0.00     0.047 A 
BRANCH  15  18
ATOM     18  O   UNL     1      -6.514   9.875 -25.682  1.00  0.00    -0.508 OA
ATOM     19  H   UNL     1      -6.348   9.057 -26.256  1.00  0.00     0.293 HD
ENDBRANCH  15  18
ENDBRANCH   1  12
BRANCH   2  20
ATOM     20  O   UNL     1      -5.066  15.116 -28.775  1.00  0.00    -0.502 OA
ATOM     21  H   UNL     1      -6.067  15.066 -28.623  1.00  0.00     0.293 HD
ENDBRANCH   2  20
BRANCH   6  22
ATOM     22  O   UNL     1      -2.137  19.370 -28.167  1.00  0.00    -0.507 OA
ATOM     23  H   UNL     1      -1.387  19.625 -28.799  1.00  0.00     0.293 HD
ENDBRANCH   6  22
BRANCH   8  24
ATOM     24  O   UNL     1       0.118  18.389 -23.998  1.00  0.00    -0.508 OA
ATOM     25  H   UNL     1      -0.060  18.187 -23.021  1.00  0.00     0.293 HD
ENDBRANCH   8  24
TORSDOF 5
ENDMDL
MODEL 3
REMARK VINA RESULT:    -5.508      3.671      6.064
REMARK INTER + INTRA:          -6.736
REMARK INTER:                  -6.445
REMARK INTRA:                  -0.290
REMARK UNBOUND:                -0.262
REMARK SMILES O=c1c(O)c(-c2ccc(O)cc2)oc2cc(O)cc(O)c12
REMARK SMILES IDX 5 1 3 2 2 3 1 4 21 5 19 6 18 7 16 8 15 9 14 10 13 11 6 12
REMARK SMILES IDX 7 13 8 14 9 15 12 16 11 17 10 18 4 20 20 22 17 24
REMARK H PARENT 10 19 4 21 20 23 17 25
REMARK Flexibility Score: inf
ROOT
ATOM      1  C   UNL     1      -4.624  15.058 -27.774  1.00  0.00     0.180 A 
ATOM      2  C   UNL     1      -3.512  15.911 -27.649  1.00  0.00     0.208 A 
ATOM      3  C   UNL     1      -3.532  17.152 -28.303  1.00  0.00     0.238 A 
ATOM      4  O   UNL     1      -2.537  17.921 -28.208  1.00  0.00    -0.285 OA
ATOM      5  C   UNL     1      -4.666  17.526 -29.054  1.00  0.00     0.111 A 
ATOM      6  C   UNL     1      -4.768  18.760 -29.741  1.00  0.00     0.134 A 
ATOM      7  C   UNL     1      -5.934  19.062 -30.460  1.00  0.00     0.093 A 
ATOM      8  C   UNL     1      -7.000  18.155 -30.502  1.00  0.00     0.123 A 
ATOM      9  C   UNL     1      -6.904  16.938 -29.826  1.00  0.00     0.094 A 
ATOM     10  C   UNL     1      -5.749  16.617 -29.107  1.00  0.00     0.146 A 
ATOM     11  O   UNL     1      -5.683  15.450 -28.478  1.00  0.00    -0.452 OA
ENDROOT
BRANCH   1  12
ATOM     12  C   UNL     1      -4.671  13.725 -27.128  1.00  0.00     0.021 A 
ATOM     13  C   UNL     1      -5.155  13.562 -25.817  1.00  0.00     0.016 A 
ATOM     14  C   UNL     1      -5.166  12.298 -25.220  1.00  0.00     0.047 A 
ATOM     15  C   UNL     1      -4.682  11.185 -25.919  1.00  0.00     0.115 A 
ATOM     16  C   UNL     1      -4.167  12.607 -27.813  1.00  0.00     0.016 A 
ATOM     17  C   UNL     1      -4.180  11.344 -27.214  1.00  0.00     0.047 A 
BRANCH  15  18
ATOM     18  O   UNL     1      -4.689   9.920 -25.334  1.00  0.00    -0.508 OA
ATOM     19  H   UNL     1      -5.122   9.128 -25.793  1.00  0.00     0.293 HD
ENDBRANCH  15  18
ENDBRANCH   1  12
BRANCH   2  20
ATOM     20  O   UNL     1      -2.422  15.538 -26.858  1.00  0.00    -0.502 OA
ATOM     21  H   UNL     1      -1.897  16.207 -26.306  1.00  0.00     0.293 HD
ENDBRANCH   2  20
BRANCH   6  22
ATOM     22  O   UNL     1      -3.722  19.683 -29.717  1.00  0.00    -0.507 OA
ATOM     23  H   UNL     1      -3.892  20.682 -29.725  1.00  0.00     0.293 HD
ENDBRANCH   6  22
BRANCH   8  24
ATOM     24  O   UNL     1      -8.159  18.456 -31.214  1.00  0.00    -0.508 OA
ATOM     25  H   UNL     1      -8.126  18.956 -32.095  1.00  0.00     0.293 HD
ENDBRANCH   8  24
TORSDOF 5
ENDMDL
MODEL 4
REMARK VINA RESULT:    -5.493      2.394      3.189
REMARK INTER + INTRA:          -6.718
REMARK INTER:                  -6.527
REMARK INTRA:                  -0.191
REMARK UNBOUND:                -0.262
REMARK SMILES O=c1c(O)c(-c2ccc(O)cc2)oc2cc(O)cc(O)c12
REMARK SMILES IDX 5 1 3 2 2 3 1 4 21 5 19 6 18 7 16 8 15 9 14 10 13 11 6 12
REMARK SMILES IDX 7 13 8 14 9 15 12 16 11 17 10 18 4 20 20 22 17 24
REMARK H PARENT 10 19 4 21 20 23 17 25
REMARK Flexibility Score: inf
ROOT
ATOM      1  C   UNL     1      -2.677  15.583 -26.879  1.00  0.00     0.180 A 
ATOM      2  C   UNL     1      -3.901  15.493 -26.187  1.00  0.00     0.208 A 
ATOM      3  C   UNL     1      -4.564  14.258 -26.141  1.00  0.00     0.238 A 
ATOM      4  O   UNL     1      -5.666  14.167 -25.534  1.00  0.00    -0.285 OA
ATOM      5  C   UNL     1      -3.988  13.133 -26.768  1.00  0.00     0.111 A 
ATOM      6  C   UNL     1      -4.591  11.852 -26.764  1.00  0.00     0.134 A 
ATOM      7  C   UNL     1      -3.950  10.780 -27.403  1.00  0.00     0.093 A 
ATOM      8  C   UNL     1      -2.719  10.966 -28.043  1.00  0.00     0.123 A 
ATOM      9  C   UNL     1      -2.121  12.227 -28.049  1.00  0.00     0.094 A 
ATOM     10  C   UNL     1      -2.746  13.308 -27.420  1.00  0.00     0.146 A 
ATOM     11  O   UNL     1      -2.157  14.498 -27.445  1.00  0.00    -0.452 OA
ENDROOT
BRANCH   1  12
ATOM     12  C   UNL     1      -1.927  16.855 -26.988  1.00  0.00     0.021 A 
ATOM     13  C   UNL     1      -0.736  17.069 -26.269  1.00  0.00     0.016 A 
ATOM     14  C   UNL     1      -0.058  18.287 -26.370  1.00  0.00     0.047 A 
ATOM     15  C   UNL     1      -0.567  19.311 -27.178  1.00  0.00     0.115 A 
ATOM     16  C   UNL     1      -2.442  17.896 -27.779  1.00  0.00     0.016 A 
ATOM     17  C   UNL     1      -1.761  19.113 -27.878  1.00  0.00     0.047 A 
BRANCH  15  18
ATOM     18  O   UNL     1       0.101  20.529 -27.287  1.00  0.00    -0.508 OA
ATOM     19  H   UNL     1      -0.283  21.380 -26.893  1.00  0.00     0.293 HD
ENDBRANCH  15  18
ENDBRANCH   1  12
BRANCH   2  20
ATOM     20  O   UNL     1      -4.425  16.611 -25.532  1.00  0.00    -0.502 OA
ATOM     21  H   UNL     1      -5.421  16.755 -25.418  1.00  0.00     0.293 HD
ENDBRANCH   2  20
BRANCH   6  22
ATOM     22  O   UNL     1      -5.817  11.637 -26.134  1.00  0.00    -0.507 OA
ATOM     23  H   UNL     1      -6.681  11.567 -26.659  1.00  0.00     0.293 HD
ENDBRANCH   6  22
BRANCH   8  24
ATOM     24  O   UNL     1      -2.081   9.901 -28.677  1.00  0.00    -0.508 OA
ATOM     25  H   UNL     1      -1.325   9.395 -28.232  1.00  0.00     0.293 HD
ENDBRANCH   8  24
TORSDOF 5
ENDMDL
MODEL 5
REMARK VINA RESULT:    -5.414      3.518      6.617
REMARK INTER + INTRA:          -6.625
REMARK INTER:                  -6.545
REMARK INTRA:                  -0.080
REMARK UNBOUND:                -0.262
REMARK SMILES O=c1c(O)c(-c2ccc(O)cc2)oc2cc(O)cc(O)c12
REMARK SMILES IDX 5 1 3 2 2 3 1 4 21 5 19 6 18 7 16 8 15 9 14 10 13 11 6 12
REMARK SMILES IDX 7 13 8 14 9 15 12 16 11 17 10 18 4 20 20 22 17 24
REMARK H PARENT 10 19 4 21 20 23 17 25
REMARK Flexibility Score: inf
ROOT
ATOM      1  C   UNL     1      -4.094  16.639 -28.317  1.00  0.00     0.180 A 
ATOM      2  C   UNL     1      -3.604  15.333 -28.507  1.00  0.00     0.208 A 
ATOM      3  C   UNL     1      -2.571  14.869 -27.678  1.00  0.00     0.238 A 
ATOM      4  O   UNL     1      -2.116  13.705 -27.845  1.00  0.00    -0.285 OA
ATOM      5  C   UNL     1      -2.060  15.707 -26.665  1.00  0.00     0.111 A 
ATOM      6  C   UNL     1      -1.022  15.315 -25.786  1.00  0.00     0.134 A 
ATOM      7  C   UNL     1      -0.574  16.203 -24.798  1.00  0.00     0.093 A 
ATOM      8  C   UNL     1      -1.145  17.476 -24.672  1.00  0.00     0.123 A 
ATOM      9  C   UNL     1      -2.168  17.867 -25.537  1.00  0.00     0.094 A 
ATOM     10  C   UNL     1      -2.626  16.996 -26.530  1.00  0.00     0.146 A 
ATOM     11  O   UNL     1      -3.598  17.396 -27.342  1.00  0.00    -0.452 OA
ENDROOT
BRANCH   1  12
ATOM     12  C   UNL     1      -5.169  17.207 -29.162  1.00  0.00     0.021 A 
ATOM     13  C   UNL     1      -4.967  18.375 -29.921  1.00  0.00     0.016 A 
ATOM     14  C   UNL     1      -6.004  18.906 -30.693  1.00  0.00     0.047 A 
ATOM     15  C   UNL     1      -7.260  18.286 -30.706  1.00  0.00     0.115 A 
ATOM     16  C   UNL     1      -6.438  16.604 -29.165  1.00  0.00     0.016 A 
ATOM     17  C   UNL     1      -7.474  17.137 -29.938  1.00  0.00     0.047 A 
BRANCH  15  18
ATOM     18  O   UNL     1      -8.301  18.805 -31.472  1.00  0.00    -0.508 OA
ATOM     19  H   UNL     1      -8.151  19.569 -32.120  1.00  0.00     0.293 HD
ENDBRANCH  15  18
ENDBRANCH   1  12
BRANCH   2  20
ATOM     20  O   UNL     1      -4.162  14.505 -29.484  1.00  0.00    -0.502 OA
ATOM     21  H   UNL     1      -5.108  14.630 -29.825  1.00  0.00     0.293 HD
ENDBRANCH   2  20
BRANCH   6  22
ATOM     22  O   UNL     1      -0.434  14.053 -25.887  1.00  0.00    -0.507 OA
ATOM     23  H   UNL     1      -0.927  13.266 -26.293  1.00  0.00     0.293 HD
ENDBRANCH   6  22
BRANCH   8  24
ATOM     24  O   UNL     1      -0.701  18.358 -23.689  1.00  0.00    -0.508 OA
ATOM     25  H   UNL     1       0.274  18.623 -23.615  1.00  0.00     0.293 HD
ENDBRANCH   8  24
TORSDOF 5
ENDMDL
MODEL 6
REMARK VINA RESULT:    -5.289      3.307      4.186
REMARK INTER + INTRA:          -6.478
REMARK INTER:                  -6.198
REMARK INTRA:                  -0.280
REMARK UNBOUND:                -0.262
REMARK SMILES O=c1c(O)c(-c2ccc(O)cc2)oc2cc(O)cc(O)c12
REMARK SMILES IDX 5 1 3 2 2 3 1 4 21 5 19 6 18 7 16 8 15 9 14 10 13 11 6 12
REMARK SMILES IDX 7 13 8 14 9 15 12 16 11 17 10 18 4 20 20 22 17 24
REMARK H PARENT 10 19 4 21 20 23 17 25
REMARK Flexibility Score: inf
ROOT
ATOM      1  C   UNL     1      -5.014  15.331 -28.492  1.00  0.00     0.180 A 
ATOM      2  C   UNL     1      -5.332  14.998 -27.162  1.00  0.00     0.208 A 
ATOM      3  C   UNL     1      -5.057  13.701 -26.704  1.00  0.00     0.238 A 
ATOM      4  O   UNL     1      -5.347  13.387 -25.517  1.00  0.00    -0.285 OA
ATOM      5  C   UNL     1      -4.454  12.767 -27.573  1.00  0.00     0.111 A 
ATOM      6  C   UNL     1      -4.141  11.441 -27.188  1.00  0.00     0.134 A 
ATOM      7  C   UNL     1      -3.534  10.575 -28.109  1.00  0.00     0.093 A 
ATOM      8  C   UNL     1      -3.233  11.010 -29.405  1.00  0.00     0.123 A 
ATOM      9  C   UNL     1      -3.539  12.316 -29.788  1.00  0.00     0.094 A 
ATOM     10  C   UNL     1      -4.148  13.194 -28.886  1.00  0.00     0.146 A 
ATOM     11  O   UNL     1      -4.433  14.430 -29.279  1.00  0.00    -0.452 OA
ENDROOT
BRANCH   1  12
ATOM     12  C   UNL     1      -5.290  16.673 -29.055  1.00  0.00     0.021 A 
ATOM     13  C   UNL     1      -6.573  17.028 -29.511  1.00  0.00     0.016 A 
ATOM     14  C   UNL     1      -6.803  18.293 -30.060  1.00  0.00     0.047 A 
ATOM     15  C   UNL     1      -5.754  19.213 -30.174  1.00  0.00     0.115 A 
ATOM     16  C   UNL     1      -4.238  17.595 -29.193  1.00  0.00     0.016 A 
ATOM     17  C   UNL     1      -4.472  18.859 -29.742  1.00  0.00     0.047 A 
BRANCH  15  18
ATOM     18  O   UNL     1      -5.972  20.476 -30.719  1.00  0.00    -0.508 OA
ATOM     19  H   UNL     1      -5.650  21.316 -30.253  1.00  0.00     0.293 HD
ENDBRANCH  15  18
ENDBRANCH   1  12
BRANCH   2  20
ATOM     20  O   UNL     1      -5.882  15.956 -26.306  1.00  0.00    -0.502 OA
ATOM     21  H   UNL     1      -6.083  15.762 -25.332  1.00  0.00     0.293 HD
ENDBRANCH   2  20
BRANCH   6  22
ATOM     22  O   UNL     1      -4.429  10.979 -25.903  1.00  0.00    -0.507 OA
ATOM     23  H   UNL     1      -4.837  10.065 -25.744  1.00  0.00     0.293 HD
ENDBRANCH   6  22
BRANCH   8  24
ATOM     24  O   UNL     1      -2.628  10.150 -30.319  1.00  0.00    -0.508 OA
ATOM     25  H   UNL     1      -2.689   9.144 -30.221  1.00  0.00     0.293 HD
ENDBRANCH   8  24
TORSDOF 5
ENDMDL
MODEL 7
REMARK VINA RESULT:    -5.126      1.683      3.685
REMARK INTER + INTRA:          -6.287
REMARK INTER:                  -6.070
REMARK INTRA:                  -0.216
REMARK UNBOUND:                -0.262
REMARK SMILES O=c1c(O)c(-c2ccc(O)cc2)oc2cc(O)cc(O)c12
REMARK SMILES IDX 5 1 3 2 2 3 1 4 21 5 19 6 18 7 16 8 15 9 14 10 13 11 6 12
REMARK SMILES IDX 7 13 8 14 9 15 12 16 11 17 10 18 4 20 20 22 17 24
REMARK H PARENT 10 19 4 21 20 23 17 25
REMARK Flexibility Score: inf
ROOT
ATOM      1  C   UNL     1      -3.161  14.410 -27.184  1.00  0.00     0.180 A 
ATOM      2  C   UNL     1      -3.336  14.000 -28.520  1.00  0.00     0.208 A 
ATOM      3  C   UNL     1      -3.988  12.786 -28.777  1.00  0.00     0.238 A 
ATOM      4  O   UNL     1      -4.141  12.403 -29.969  1.00  0.00    -0.285 OA
ATOM      5  C   UNL     1      -4.471  12.012 -27.701  1.00  0.00     0.111 A 
ATOM      6  C   UNL     1      -5.143  10.778 -27.874  1.00  0.00     0.134 A 
ATOM      7  C   UNL     1      -5.601  10.071 -26.753  1.00  0.00     0.093 A 
ATOM      8  C   UNL     1      -5.401  10.576 -25.462  1.00  0.00     0.123 A 
ATOM      9  C   UNL     1      -4.739  11.792 -25.286  1.00  0.00     0.094 A 
ATOM     10  C   UNL     1      -4.273  12.510 -26.392  1.00  0.00     0.146 A 
ATOM     11  O   UNL     1      -3.642  13.662 -26.195  1.00  0.00    -0.452 OA
ENDROOT
BRANCH   1  12
ATOM     12  C   UNL     1      -2.466  15.669 -26.831  1.00  0.00     0.021 A 
ATOM     13  C   UNL     1      -1.182  15.663 -26.255  1.00  0.00     0.016 A 
ATOM     14  C   UNL     1      -0.557  16.864 -25.909  1.00  0.00     0.047 A 
ATOM     15  C   UNL     1      -1.211  18.085 -26.119  1.00  0.00     0.115 A 
ATOM     16  C   UNL     1      -3.123  16.897 -27.019  1.00  0.00     0.016 A 
ATOM     17  C   UNL     1      -2.495  18.097 -26.672  1.00  0.00     0.047 A 
BRANCH  15  18
ATOM     18  O   UNL     1      -0.597  19.288 -25.779  1.00  0.00    -0.508 OA
ATOM     19  H   UNL     1      -0.943  20.175 -26.124  1.00  0.00     0.293 HD
ENDBRANCH  15  18
ENDBRANCH   1  12
BRANCH   2  20
ATOM     20  O   UNL     1      -2.893  14.809 -29.569  1.00  0.00    -0.502 OA
ATOM     21  H   UNL     1      -3.124  15.794 -29.631  1.00  0.00     0.293 HD
ENDBRANCH   2  20
BRANCH   6  22
ATOM     22  O   UNL     1      -5.357  10.249 -29.148  1.00  0.00    -0.507 OA
ATOM     23  H   UNL     1      -4.834  10.572 -29.954  1.00  0.00     0.293 HD
ENDBRANCH   6  22
BRANCH   8  24
ATOM     24  O   UNL     1      -5.857   9.875 -24.348  1.00  0.00    -0.508 OA
ATOM     25  H   UNL     1      -6.706  10.143 -23.863  1.00  0.00     0.293 HD
ENDBRANCH   8  24
TORSDOF 5
ENDMDL
MODEL 8
REMARK VINA RESULT:    -5.062      2.460      6.817
REMARK INTER + INTRA:          -6.211
REMARK INTER:                  -5.924
REMARK INTRA:                  -0.288
REMARK UNBOUND:                -0.262
REMARK SMILES O=c1c(O)c(-c2ccc(O)cc2)oc2cc(O)cc(O)c12
REMARK SMILES IDX 5 1 3 2 2 3 1 4 21 5 19 6 18 7 16 8 15 9 14 10 13 11 6 12
REMARK SMILES IDX 7 13 8 14 9 15 12 16 11 17 10 18 4 20 20 22 17 24
REMARK H PARENT 10 19 4 21 20 23 17 25
REMARK Flexibility Score: inf
ROOT
ATOM      1  C   UNL     1      -2.576  15.629 -26.695  1.00  0.00     0.180 A 
ATOM      2  C   UNL     1      -1.673  15.817 -25.631  1.00  0.00     0.208 A 
ATOM      3  C   UNL     1      -1.061  17.069 -25.475  1.00  0.00     0.238 A 
ATOM      4  O   UNL     1      -0.242  17.247 -24.532  1.00  0.00    -0.285 OA
ATOM      5  C   UNL     1      -1.374  18.115 -26.368  1.00  0.00     0.111 A 
ATOM      6  C   UNL     1      -0.804  19.408 -26.277  1.00  0.00     0.134 A 
ATOM      7  C   UNL     1      -1.174  20.398 -27.199  1.00  0.00     0.093 A 
ATOM      8  C   UNL     1      -2.104  20.119 -28.209  1.00  0.00     0.123 A 
ATOM      9  C   UNL     1      -2.668  18.847 -28.302  1.00  0.00     0.094 A 
ATOM     10  C   UNL     1      -2.310  17.846 -27.394  1.00  0.00     0.146 A 
ATOM     11  O   UNL     1      -2.859  16.642 -27.509  1.00  0.00    -0.452 OA
ENDROOT
BRANCH   1  12
ATOM     12  C   UNL     1      -3.248  14.331 -26.937  1.00  0.00     0.021 A 
ATOM     13  C   UNL     1      -4.503  14.038 -26.372  1.00  0.00     0.016 A 
ATOM     14  C   UNL     1      -5.106  12.797 -26.596  1.00  0.00     0.047 A 
ATOM     15  C   UNL     1      -4.458  11.829 -27.374  1.00  0.00     0.115 A 
ATOM     16  C   UNL     1      -2.596  13.347 -27.698  1.00  0.00     0.016 A 
ATOM     17  C   UNL     1      -3.202  12.107 -27.921  1.00  0.00     0.047 A 
BRANCH  15  18
ATOM     18  O   UNL     1      -5.050  10.589 -27.604  1.00  0.00    -0.508 OA
ATOM     19  H   UNL     1      -4.863   9.794 -27.005  1.00  0.00     0.293 HD
ENDBRANCH  15  18
ENDBRANCH   1  12
BRANCH   2  20
ATOM     20  O   UNL     1      -1.418  14.779 -24.731  1.00  0.00    -0.502 OA
ATOM     21  H   UNL     1      -1.037  13.888 -25.024  1.00  0.00     0.293 HD
ENDBRANCH   2  20
BRANCH   6  22
ATOM     22  O   UNL     1       0.125  19.715 -25.282  1.00  0.00    -0.507 OA
ATOM     23  H   UNL     1       0.107  19.259 -24.377  1.00  0.00     0.293 HD
ENDBRANCH   6  22
BRANCH   8  24
ATOM     24  O   UNL     1      -2.472  21.103 -29.123  1.00  0.00    -0.508 OA
ATOM     25  H   UNL     1      -2.237  21.029 -30.106  1.00  0.00     0.293 HD
ENDBRANCH   8  24
TORSDOF 5
ENDMDL
MODEL 9
REMARK VINA RESULT:    -4.802      1.943      3.031
REMARK INTER + INTRA:          -5.906
REMARK INTER:                  -5.732
REMARK INTRA:                  -0.174
REMARK UNBOUND:                -0.262
REMARK SMILES O=c1c(O)c(-c2ccc(O)cc2)oc2cc(O)cc(O)c12
REMARK SMILES IDX 5 1 3 2 2 3 1 4 21 5 19 6 18 7 16 8 15 9 14 10 13 11 6 12
REMARK SMILES IDX 7 13 8 14 9 15 12 16 11 17 10 18 4 20 20 22 17 24
REMARK H PARENT 10 19 4 21 20 23 17 25
REMARK Flexibility Score: inf
ROOT
ATOM      1  C   UNL     1      -2.386  15.747 -27.316  1.00  0.00     0.180 A 
ATOM      2  C   UNL     1      -3.220  16.211 -28.351  1.00  0.00     0.208 A 
ATOM      3  C   UNL     1      -3.740  15.287 -29.268  1.00  0.00     0.238 A 
ATOM      4  O   UNL     1      -4.480  15.692 -30.206  1.00  0.00    -0.285 OA
ATOM      5  C   UNL     1      -3.436  13.917 -29.127  1.00  0.00     0.111 A 
ATOM      6  C   UNL     1      -3.924  12.921 -30.007  1.00  0.00     0.134 A 
ATOM      7  C   UNL     1      -3.583  11.577 -29.794  1.00  0.00     0.093 A 
ATOM      8  C   UNL     1      -2.766  11.211 -28.717  1.00  0.00     0.123 A 
ATOM      9  C   UNL     1      -2.284  12.190 -27.847  1.00  0.00     0.094 A 
ATOM     10  C   UNL     1      -2.610  13.535 -28.045  1.00  0.00     0.146 A 
ATOM     11  O   UNL     1      -2.133  14.446 -27.205  1.00  0.00    -0.452 OA
ENDROOT
BRANCH   1  12
ATOM     12  C   UNL     1      -1.783  16.663 -26.320  1.00  0.00     0.021 A 
ATOM     13  C   UNL     1      -0.824  17.623 -26.691  1.00  0.00     0.016 A 
ATOM     14  C   UNL     1      -0.252  18.460 -25.729  1.00  0.00     0.047 A 
ATOM     15  C   UNL     1      -0.619  18.339 -24.383  1.00  0.00     0.115 A 
ATOM     16  C   UNL     1      -2.129  16.534 -24.964  1.00  0.00     0.016 A 
ATOM     17  C   UNL     1      -1.555  17.372 -24.004  1.00  0.00     0.047 A 
BRANCH  15  18
ATOM     18  O   UNL     1      -0.056  19.168 -23.415  1.00  0.00    -0.508 OA
ATOM     19  H   UNL     1       0.622  19.880 -23.659  1.00  0.00     0.293 HD
ENDBRANCH  15  18
ENDBRANCH   1  12
BRANCH   2  20
ATOM     20  O   UNL     1      -3.546  17.567 -28.439  1.00  0.00    -0.502 OA
ATOM     21  H   UNL     1      -3.111  18.270 -27.852  1.00  0.00     0.293 HD
ENDBRANCH   2  20
BRANCH   6  22
ATOM     22  O   UNL     1      -4.740  13.255 -31.089  1.00  0.00    -0.507 OA
ATOM     23  H   UNL     1      -5.115  14.189 -31.205  1.00  0.00     0.293 HD
ENDBRANCH   6  22
BRANCH   8  24
ATOM     24  O   UNL     1      -2.429   9.877 -28.504  1.00  0.00    -0.508 OA
ATOM     25  H   UNL     1      -2.915   9.125 -28.979  1.00  0.00     0.293 HD
ENDBRANCH   8  24
TORSDOF 5
ENDMDL
