MODEL 1
REMARK VINA RESULT:    -6.815      0.000      0.000
REMARK INTER + INTRA:          -8.267
REMARK INTER:                  -8.209
REMARK INTRA:                  -0.058
REMARK UNBOUND:                -0.058
REMARK SMILES O=c1c(O)c(-c2ccc(O)c(O)c2)oc2cc(O)cc(O)c12
REMARK SMILES IDX 5 1 3 2 2 3 1 4 22 5 20 6 19 7 17 8 16 9 15 10 14 11 6 12
REMARK SMILES IDX 7 13 8 14 9 15 13 16 11 17 10 18 12 20 4 22 21 24 18 26
REMARK H PARENT 10 19 12 21 4 23 21 25 18 27
REMARK Flexibility Score: inf
ROOT
ATOM      1  C   UNL     1     -25.797  91.167  79.744  1.00  0.00     0.180 A 
ATOM      2  C   UNL     1     -26.061  91.088  81.125  1.00  0.00     0.208 A 
ATOM      3  C   UNL     1     -25.471  92.030  81.984  1.00  0.00     0.238 A 
ATOM      4  O   UNL     1     -25.709  91.976  83.221  1.00  0.00    -0.285 OA
ATOM      5  C   UNL     1     -24.615  93.016  81.453  1.00  0.00     0.111 A 
ATOM      6  C   UNL     1     -23.978  93.999  82.248  1.00  0.00     0.134 A 
ATOM      7  C   UNL     1     -23.132  94.940  81.645  1.00  0.00     0.093 A 
ATOM      8  C   UNL     1     -22.911  94.921  80.267  1.00  0.00     0.123 A 
ATOM      9  C   UNL     1     -23.537  93.954  79.475  1.00  0.00     0.094 A 
ATOM     10  C   UNL     1     -24.385  93.007  80.056  1.00  0.00     0.146 A 
ATOM     11  O   UNL     1     -24.973  92.102  79.281  1.00  0.00    -0.452 OA
ENDROOT
BRANCH   1  12
ATOM     12  C   UNL     1     -26.397  90.223  78.774  1.00  0.00     0.025 A 
ATOM     13  C   UNL     1     -27.792  90.078  78.724  1.00  0.00     0.016 A 
ATOM     14  C   UNL     1     -28.379  89.179  77.831  1.00  0.00     0.051 A 
ATOM     15  C   UNL     1     -27.583  88.401  76.986  1.00  0.00     0.157 A 
ATOM     16  C   UNL     1     -25.597  89.424  77.937  1.00  0.00     0.062 A 
ATOM     17  C   UNL     1     -26.184  88.519  77.041  1.00  0.00     0.158 A 
BRANCH  15  18
ATOM     18  O   UNL     1     -28.197  87.513  76.102  1.00  0.00    -0.504 OA
ATOM     19  H   UNL     1     -28.978  87.789  75.518  1.00  0.00     0.293 HD
ENDBRANCH  15  18
BRANCH  17  20
ATOM     20  O   UNL     1     -25.384  87.736  76.211  1.00  0.00    -0.504 OA
ATOM     21  H   UNL     1     -24.541  87.290  76.554  1.00  0.00     0.293 HD
ENDBRANCH  17  20
ENDBRANCH   1  12
BRANCH   2  22
ATOM     22  O   UNL     1     -26.874  90.071  81.632  1.00  0.00    -0.502 OA
ATOM     23  H   UNL     1     -27.726  89.777  81.171  1.00  0.00     0.293 HD
ENDBRANCH   2  22
BRANCH   6  24
ATOM     24  O   UNL     1     -24.177  94.044  83.629  1.00  0.00    -0.507 OA
ATOM     25  H   UNL     1     -24.185  93.202  84.194  1.00  0.00     0.293 HD
ENDBRANCH   6  24
BRANCH   8  26
ATOM     26  O   UNL     1     -22.065  95.868  79.694  1.00  0.00    -0.508 OA
ATOM     27  H   UNL     1     -22.368  96.824  79.539  1.00  0.00     0.293 HD
ENDBRANCH   8  26
TORSDOF 6
ENDMDL
MODEL 2
REMARK VINA RESULT:    -6.810      7.868     11.249
REMARK INTER + INTRA:          -8.261
REMARK INTER:                  -8.189
REMARK INTRA:                  -0.072
REMARK UNBOUND:                -0.058
REMARK SMILES O=c1c(O)c(-c2ccc(O)c(O)c2)oc2cc(O)cc(O)c12
REMARK SMILES IDX 5 1 3 2 2 3 1 4 22 5 20 6 19 7 17 8 16 9 15 10 14 11 6 12
REMARK SMILES IDX 7 13 8 14 9 15 13 16 11 17 10 18 12 20 4 22 21 24 18 26
REMARK H PARENT 10 19 12 21 4 23 21 25 18 27
REMARK Flexibility Score: inf
ROOT
ATOM      1  C   UNL     1     -26.014  82.979  81.855  1.00  0.00     0.180 A 
ATOM      2  C   UNL     1     -26.287  83.073  80.477  1.00  0.00     0.208 A 
ATOM      3  C   UNL     1     -25.767  82.095  79.614  1.00  0.00     0.238 A 
ATOM      4  O   UNL     1     -26.014  82.163  78.380  1.00  0.00    -0.285 OA
ATOM      5  C   UNL     1     -24.970  81.056  80.137  1.00  0.00     0.111 A 
ATOM      6  C   UNL     1     -24.405  80.035  79.337  1.00  0.00     0.134 A 
ATOM      7  C   UNL     1     -23.614  79.042  79.933  1.00  0.00     0.093 A 
ATOM      8  C   UNL     1     -23.378  79.049  81.308  1.00  0.00     0.123 A 
ATOM      9  C   UNL     1     -23.933  80.054  82.106  1.00  0.00     0.094 A 
ATOM     10  C   UNL     1     -24.726  81.053  81.532  1.00  0.00     0.146 A 
ATOM     11  O   UNL     1     -25.246  81.994  82.311  1.00  0.00    -0.452 OA
ENDROOT
BRANCH   1  12
ATOM     12  C   UNL     1     -26.543  83.960  82.830  1.00  0.00     0.025 A 
ATOM     13  C   UNL     1     -27.927  84.178  82.909  1.00  0.00     0.016 A 
ATOM     14  C   UNL     1     -28.447  85.113  83.807  1.00  0.00     0.051 A 
ATOM     15  C   UNL     1     -27.593  85.855  84.628  1.00  0.00     0.157 A 
ATOM     16  C   UNL     1     -25.684  84.722  83.642  1.00  0.00     0.062 A 
ATOM     17  C   UNL     1     -26.203  85.663  84.543  1.00  0.00     0.158 A 
BRANCH  15  18
ATOM     18  O   UNL     1     -28.140  86.780  85.517  1.00  0.00    -0.504 OA
ATOM     19  H   UNL     1     -27.708  86.992  86.408  1.00  0.00     0.293 HD
ENDBRANCH  15  18
BRANCH  17  20
ATOM     20  O   UNL     1     -25.345  86.410  85.349  1.00  0.00    -0.504 OA
ATOM     21  H   UNL     1     -25.658  87.251  85.820  1.00  0.00     0.293 HD
ENDBRANCH  17  20
ENDBRANCH   1  12
BRANCH   2  22
ATOM     22  O   UNL     1     -27.039  84.140  79.977  1.00  0.00    -0.502 OA
ATOM     23  H   UNL     1     -27.809  84.005  79.334  1.00  0.00     0.293 HD
ENDBRANCH   2  22
BRANCH   6  24
ATOM     24  O   UNL     1     -24.621  80.001  77.959  1.00  0.00    -0.507 OA
ATOM     25  H   UNL     1     -25.531  79.787  77.567  1.00  0.00     0.293 HD
ENDBRANCH   6  24
BRANCH   8  26
ATOM     26  O   UNL     1     -22.588  78.050  81.875  1.00  0.00    -0.508 OA
ATOM     27  H   UNL     1     -21.577  78.125  81.902  1.00  0.00     0.293 HD
ENDBRANCH   8  26
TORSDOF 6
ENDMDL
MODEL 3
REMARK VINA RESULT:    -6.709      3.250      6.700
REMARK INTER + INTRA:          -8.140
REMARK INTER:                  -7.823
REMARK INTRA:                  -0.318
REMARK UNBOUND:                -0.058
REMARK SMILES O=c1c(O)c(-c2ccc(O)c(O)c2)oc2cc(O)cc(O)c12
REMARK SMILES IDX 5 1 3 2 2 3 1 4 22 5 20 6 19 7 17 8 16 9 15 10 14 11 6 12
REMARK SMILES IDX 7 13 8 14 9 15 13 16 11 17 10 18 12 20 4 22 21 24 18 26
REMARK H PARENT 10 19 12 21 4 23 21 25 18 27
REMARK Flexibility Score: inf
ROOT
ATOM      1  C   UNL     1     -26.364  91.771  83.605  1.00  0.00     0.180 A 
ATOM      2  C   UNL     1     -26.870  90.736  82.797  1.00  0.00     0.208 A 
ATOM      3  C   UNL     1     -26.450  90.652  81.460  1.00  0.00     0.238 A 
ATOM      4  O   UNL     1     -26.888  89.723  80.729  1.00  0.00    -0.285 OA
ATOM      5  C   UNL     1     -25.550  91.611  80.951  1.00  0.00     0.111 A 
ATOM      6  C   UNL     1     -25.080  91.600  79.616  1.00  0.00     0.134 A 
ATOM      7  C   UNL     1     -24.194  92.596  79.182  1.00  0.00     0.093 A 
ATOM      8  C   UNL     1     -23.768  93.600  80.054  1.00  0.00     0.123 A 
ATOM      9  C   UNL     1     -24.228  93.616  81.374  1.00  0.00     0.094 A 
ATOM     10  C   UNL     1     -25.110  92.632  81.827  1.00  0.00     0.146 A 
ATOM     11  O   UNL     1     -25.528  92.667  83.087  1.00  0.00    -0.452 OA
ENDROOT
BRANCH   1  12
ATOM     12  C   UNL     1     -26.744  91.915  85.029  1.00  0.00     0.025 A 
ATOM     13  C   UNL     1     -27.903  92.631  85.365  1.00  0.00     0.016 A 
ATOM     14  C   UNL     1     -28.271  92.797  86.702  1.00  0.00     0.051 A 
ATOM     15  C   UNL     1     -27.479  92.265  87.724  1.00  0.00     0.157 A 
ATOM     16  C   UNL     1     -25.938  91.398  86.059  1.00  0.00     0.062 A 
ATOM     17  C   UNL     1     -26.304  91.565  87.403  1.00  0.00     0.158 A 
BRANCH  15  18
ATOM     18  O   UNL     1     -27.873  92.444  89.051  1.00  0.00    -0.504 OA
ATOM     19  H   UNL     1     -28.661  93.029  89.304  1.00  0.00     0.293 HD
ENDBRANCH  15  18
BRANCH  17  20
ATOM     20  O   UNL     1     -25.503  91.045  88.418  1.00  0.00    -0.504 OA
ATOM     21  H   UNL     1     -24.555  91.372  88.566  1.00  0.00     0.293 HD
ENDBRANCH  17  20
ENDBRANCH   1  12
BRANCH   2  22
ATOM     22  O   UNL     1     -27.799  89.827  83.312  1.00  0.00    -0.502 OA
ATOM     23  H   UNL     1     -27.525  88.930  83.694  1.00  0.00     0.293 HD
ENDBRANCH   2  22
BRANCH   6  24
ATOM     24  O   UNL     1     -25.488  90.611  78.719  1.00  0.00    -0.507 OA
ATOM     25  H   UNL     1     -26.297  90.735  78.120  1.00  0.00     0.293 HD
ENDBRANCH   6  24
BRANCH   8  26
ATOM     26  O   UNL     1     -22.886  94.578  79.597  1.00  0.00    -0.508 OA
ATOM     27  H   UNL     1     -22.066  94.338  79.052  1.00  0.00     0.293 HD
ENDBRANCH   8  26
TORSDOF 6
ENDMDL
MODEL 4
REMARK VINA RESULT:    -6.709      2.208      2.544
REMARK INTER + INTRA:          -8.140
REMARK INTER:                  -7.939
REMARK INTRA:                  -0.201
REMARK UNBOUND:                -0.058
REMARK SMILES O=c1c(O)c(-c2ccc(O)c(O)c2)oc2cc(O)cc(O)c12
REMARK SMILES IDX 5 1 3 2 2 3 1 4 22 5 20 6 19 7 17 8 16 9 15 10 14 11 6 12
REMARK SMILES IDX 7 13 8 14 9 15 13 16 11 17 10 18 12 20 4 22 21 24 18 26
REMARK H PARENT 10 19 12 21 4 23 21 25 18 27
REMARK Flexibility Score: inf
ROOT
ATOM      1  C   UNL     1     -26.037  90.367  78.773  1.00  0.00     0.180 A 
ATOM      2  C   UNL     1     -27.266  90.907  79.196  1.00  0.00     0.208 A 
ATOM      3  C   UNL     1     -27.312  92.250  79.604  1.00  0.00     0.238 A 
ATOM      4  O   UNL     1     -28.410  92.748  79.974  1.00  0.00    -0.285 OA
ATOM      5  C   UNL     1     -26.131  93.020  79.602  1.00  0.00     0.111 A 
ATOM      6  C   UNL     1     -26.090  94.377  80.001  1.00  0.00     0.134 A 
ATOM      7  C   UNL     1     -24.873  95.072  79.981  1.00  0.00     0.093 A 
ATOM      8  C   UNL     1     -23.698  94.440  79.570  1.00  0.00     0.123 A 
ATOM      9  C   UNL     1     -23.731  93.099  79.173  1.00  0.00     0.094 A 
ATOM     10  C   UNL     1     -24.934  92.389  79.185  1.00  0.00     0.146 A 
ATOM     11  O   UNL     1     -24.940  91.118  78.798  1.00  0.00    -0.452 OA
ENDROOT
BRANCH   1  12
ATOM     12  C   UNL     1     -25.911  88.966  78.309  1.00  0.00     0.025 A 
ATOM     13  C   UNL     1     -26.038  87.918  79.235  1.00  0.00     0.016 A 
ATOM     14  C   UNL     1     -25.904  86.590  78.825  1.00  0.00     0.051 A 
ATOM     15  C   UNL     1     -25.624  86.288  77.488  1.00  0.00     0.157 A 
ATOM     16  C   UNL     1     -25.610  88.660  76.970  1.00  0.00     0.062 A 
ATOM     17  C   UNL     1     -25.472  87.328  76.555  1.00  0.00     0.158 A 
BRANCH  15  18
ATOM     18  O   UNL     1     -25.498  84.952  77.107  1.00  0.00    -0.504 OA
ATOM     19  H   UNL     1     -24.771  84.640  76.473  1.00  0.00     0.293 HD
ENDBRANCH  15  18
BRANCH  17  20
ATOM     20  O   UNL     1     -25.180  87.034  75.225  1.00  0.00    -0.504 OA
ATOM     21  H   UNL     1     -24.554  86.277  74.974  1.00  0.00     0.293 HD
ENDBRANCH  17  20
ENDBRANCH   1  12
BRANCH   2  22
ATOM     22  O   UNL     1     -28.413  90.109  79.235  1.00  0.00    -0.502 OA
ATOM     23  H   UNL     1     -28.434  89.171  78.854  1.00  0.00     0.293 HD
ENDBRANCH   2  22
BRANCH   6  24
ATOM     24  O   UNL     1     -27.247  95.037  80.420  1.00  0.00    -0.507 OA
ATOM     25  H   UNL     1     -27.523  95.929  80.026  1.00  0.00     0.293 HD
ENDBRANCH   6  24
BRANCH   8  26
ATOM     26  O   UNL     1     -22.501  95.154  79.559  1.00  0.00    -0.508 OA
ATOM     27  H   UNL     1     -22.100  95.528  80.412  1.00  0.00     0.293 HD
ENDBRANCH   8  26
TORSDOF 6
ENDMDL
MODEL 5
REMARK VINA RESULT:    -6.690      4.500      7.468
REMARK INTER + INTRA:          -8.117
REMARK INTER:                  -7.818
REMARK INTRA:                  -0.299
REMARK UNBOUND:                -0.058
REMARK SMILES O=c1c(O)c(-c2ccc(O)c(O)c2)oc2cc(O)cc(O)c12
REMARK SMILES IDX 5 1 3 2 2 3 1 4 22 5 20 6 19 7 17 8 16 9 15 10 14 11 6 12
REMARK SMILES IDX 7 13 8 14 9 15 13 16 11 17 10 18 12 20 4 22 21 24 18 26
REMARK H PARENT 10 19 12 21 4 23 21 25 18 27
REMARK Flexibility Score: inf
ROOT
ATOM      1  C   UNL     1     -25.044  91.743  83.998  1.00  0.00     0.180 A 
ATOM      2  C   UNL     1     -26.401  91.844  84.361  1.00  0.00     0.208 A 
ATOM      3  C   UNL     1     -26.964  90.843  85.169  1.00  0.00     0.238 A 
ATOM      4  O   UNL     1     -28.174  90.928  85.509  1.00  0.00    -0.285 OA
ATOM      5  C   UNL     1     -26.170  89.753  85.583  1.00  0.00     0.111 A 
ATOM      6  C   UNL     1     -26.659  88.702  86.393  1.00  0.00     0.134 A 
ATOM      7  C   UNL     1     -25.808  87.647  86.754  1.00  0.00     0.093 A 
ATOM      8  C   UNL     1     -24.482  87.623  86.321  1.00  0.00     0.123 A 
ATOM      9  C   UNL     1     -23.990  88.658  85.520  1.00  0.00     0.094 A 
ATOM     10  C   UNL     1     -24.822  89.719  85.151  1.00  0.00     0.146 A 
ATOM     11  O   UNL     1     -24.330  90.694  84.395  1.00  0.00    -0.452 OA
ENDROOT
BRANCH   1  12
ATOM     12  C   UNL     1     -24.375  92.768  83.165  1.00  0.00     0.025 A 
ATOM     13  C   UNL     1     -24.512  92.721  81.769  1.00  0.00     0.016 A 
ATOM     14  C   UNL     1     -23.873  93.665  80.962  1.00  0.00     0.051 A 
ATOM     15  C   UNL     1     -23.075  94.660  81.535  1.00  0.00     0.157 A 
ATOM     16  C   UNL     1     -23.555  93.758  83.738  1.00  0.00     0.062 A 
ATOM     17  C   UNL     1     -22.911  94.705  82.930  1.00  0.00     0.158 A 
BRANCH  15  18
ATOM     18  O   UNL     1     -22.451  95.591  80.704  1.00  0.00    -0.504 OA
ATOM     19  H   UNL     1     -22.955  96.366  80.289  1.00  0.00     0.293 HD
ENDBRANCH  15  18
BRANCH  17  20
ATOM     20  O   UNL     1     -22.105  95.686  83.505  1.00  0.00    -0.504 OA
ATOM     21  H   UNL     1     -21.426  95.461  84.223  1.00  0.00     0.293 HD
ENDBRANCH  17  20
ENDBRANCH   1  12
BRANCH   2  22
ATOM     22  O   UNL     1     -27.179  92.909  83.898  1.00  0.00    -0.502 OA
ATOM     23  H   UNL     1     -27.710  93.504  84.521  1.00  0.00     0.293 HD
ENDBRANCH   2  22
BRANCH   6  24
ATOM     24  O   UNL     1     -27.982  88.696  86.840  1.00  0.00    -0.507 OA
ATOM     25  H   UNL     1     -28.461  87.835  87.075  1.00  0.00     0.293 HD
ENDBRANCH   6  24
BRANCH   8  26
ATOM     26  O   UNL     1     -23.657  86.562  86.694  1.00  0.00    -0.508 OA
ATOM     27  H   UNL     1     -22.661  86.691  86.837  1.00  0.00     0.293 HD
ENDBRANCH   8  26
TORSDOF 6
ENDMDL
MODEL 6
REMARK VINA RESULT:    -6.681      8.509     10.033
REMARK INTER + INTRA:          -8.106
REMARK INTER:                  -7.795
REMARK INTRA:                  -0.312
REMARK UNBOUND:                -0.058
REMARK SMILES O=c1c(O)c(-c2ccc(O)c(O)c2)oc2cc(O)cc(O)c12
REMARK SMILES IDX 5 1 3 2 2 3 1 4 22 5 20 6 19 7 17 8 16 9 15 10 14 11 6 12
REMARK SMILES IDX 7 13 8 14 9 15 13 16 11 17 10 18 12 20 4 22 21 24 18 26
REMARK H PARENT 10 19 12 21 4 23 21 25 18 27
REMARK Flexibility Score: inf
ROOT
ATOM      1  C   UNL     1     -26.619  82.454  77.925  1.00  0.00     0.180 A 
ATOM      2  C   UNL     1     -27.114  83.495  78.734  1.00  0.00     0.208 A 
ATOM      3  C   UNL     1     -26.716  83.556  80.080  1.00  0.00     0.238 A 
ATOM      4  O   UNL     1     -27.144  84.490  80.811  1.00  0.00    -0.285 OA
ATOM      5  C   UNL     1     -25.852  82.569  80.596  1.00  0.00     0.111 A 
ATOM      6  C   UNL     1     -25.407  82.556  81.940  1.00  0.00     0.134 A 
ATOM      7  C   UNL     1     -24.555  81.533  82.380  1.00  0.00     0.093 A 
ATOM      8  C   UNL     1     -24.139  80.526  81.507  1.00  0.00     0.123 A 
ATOM      9  C   UNL     1     -24.574  80.533  80.178  1.00  0.00     0.094 A 
ATOM     10  C   UNL     1     -25.423  81.544  79.719  1.00  0.00     0.146 A 
ATOM     11  O   UNL     1     -25.817  81.532  78.451  1.00  0.00    -0.452 OA
ENDROOT
BRANCH   1  12
ATOM     12  C   UNL     1     -26.977  82.332  76.494  1.00  0.00     0.025 A 
ATOM     13  C   UNL     1     -28.165  81.679  76.131  1.00  0.00     0.016 A 
ATOM     14  C   UNL     1     -28.513  81.536  74.786  1.00  0.00     0.051 A 
ATOM     15  C   UNL     1     -27.672  82.026  73.783  1.00  0.00     0.157 A 
ATOM     16  C   UNL     1     -26.123  82.807  75.482  1.00  0.00     0.062 A 
ATOM     17  C   UNL     1     -26.468  82.662  74.131  1.00  0.00     0.158 A 
BRANCH  15  18
ATOM     18  O   UNL     1     -28.046  81.870  72.448  1.00  0.00    -0.504 OA
ATOM     19  H   UNL     1     -28.653  81.118  72.143  1.00  0.00     0.293 HD
ENDBRANCH  15  18
BRANCH  17  20
ATOM     20  O   UNL     1     -25.619  83.141  73.134  1.00  0.00    -0.504 OA
ATOM     21  H   UNL     1     -25.251  84.084  73.160  1.00  0.00     0.293 HD
ENDBRANCH  17  20
ENDBRANCH   1  12
BRANCH   2  22
ATOM     22  O   UNL     1     -28.008  84.432  78.211  1.00  0.00    -0.502 OA
ATOM     23  H   UNL     1     -28.767  84.821  78.756  1.00  0.00     0.293 HD
ENDBRANCH   2  22
BRANCH   6  24
ATOM     24  O   UNL     1     -25.806  83.547  82.838  1.00  0.00    -0.507 OA
ATOM     25  H   UNL     1     -25.136  84.162  83.285  1.00  0.00     0.293 HD
ENDBRANCH   6  24
BRANCH   8  26
ATOM     26  O   UNL     1     -23.292  79.521  81.971  1.00  0.00    -0.508 OA
ATOM     27  H   UNL     1     -23.650  78.615  82.253  1.00  0.00     0.293 HD
ENDBRANCH   8  26
TORSDOF 6
ENDMDL
MODEL 7
REMARK VINA RESULT:    -6.673      7.618     10.871
REMARK INTER + INTRA:          -8.097
REMARK INTER:                  -7.899
REMARK INTRA:                  -0.198
REMARK UNBOUND:                -0.058
REMARK SMILES O=c1c(O)c(-c2ccc(O)c(O)c2)oc2cc(O)cc(O)c12
REMARK SMILES IDX 5 1 3 2 2 3 1 4 22 5 20 6 19 7 17 8 16 9 15 10 14 11 6 12
REMARK SMILES IDX 7 13 8 14 9 15 13 16 11 17 10 18 12 20 4 22 21 24 18 26
REMARK H PARENT 10 19 12 21 4 23 21 25 18 27
REMARK Flexibility Score: inf
ROOT
ATOM      1  C   UNL     1     -26.248  83.984  82.868  1.00  0.00     0.180 A 
ATOM      2  C   UNL     1     -27.528  83.522  82.506  1.00  0.00     0.208 A 
ATOM      3  C   UNL     1     -27.672  82.198  82.063  1.00  0.00     0.238 A 
ATOM      4  O   UNL     1     -28.815  81.770  81.746  1.00  0.00    -0.285 OA
ATOM      5  C   UNL     1     -26.536  81.367  81.970  1.00  0.00     0.111 A 
ATOM      6  C   UNL     1     -26.594  80.023  81.530  1.00  0.00     0.134 A 
ATOM      7  C   UNL     1     -25.417  79.264  81.455  1.00  0.00     0.093 A 
ATOM      8  C   UNL     1     -24.187  79.820  81.812  1.00  0.00     0.123 A 
ATOM      9  C   UNL     1     -24.122  81.147  82.248  1.00  0.00     0.094 A 
ATOM     10  C   UNL     1     -25.284  81.920  82.331  1.00  0.00     0.146 A 
ATOM     11  O   UNL     1     -25.197  83.176  82.753  1.00  0.00    -0.452 OA
ENDROOT
BRANCH   1  12
ATOM     12  C   UNL     1     -26.018  85.360  83.362  1.00  0.00     0.025 A 
ATOM     13  C   UNL     1     -26.144  86.442  82.477  1.00  0.00     0.016 A 
ATOM     14  C   UNL     1     -25.913  87.748  82.916  1.00  0.00     0.051 A 
ATOM     15  C   UNL     1     -25.537  87.991  84.240  1.00  0.00     0.157 A 
ATOM     16  C   UNL     1     -25.620  85.606  84.688  1.00  0.00     0.062 A 
ATOM     17  C   UNL     1     -25.385  86.916  85.132  1.00  0.00     0.158 A 
BRANCH  15  18
ATOM     18  O   UNL     1     -25.315  89.306  84.651  1.00  0.00    -0.504 OA
ATOM     19  H   UNL     1     -24.385  89.659  84.846  1.00  0.00     0.293 HD
ENDBRANCH  15  18
BRANCH  17  20
ATOM     20  O   UNL     1     -24.997  87.151  86.449  1.00  0.00    -0.504 OA
ATOM     21  H   UNL     1     -25.302  87.976  86.953  1.00  0.00     0.293 HD
ENDBRANCH  17  20
ENDBRANCH   1  12
BRANCH   2  22
ATOM     22  O   UNL     1     -28.630  84.381  82.560  1.00  0.00    -0.502 OA
ATOM     23  H   UNL     1     -29.583  84.042  82.531  1.00  0.00     0.293 HD
ENDBRANCH   2  22
BRANCH   6  24
ATOM     24  O   UNL     1     -27.808  79.439  81.165  1.00  0.00    -0.507 OA
ATOM     25  H   UNL     1     -28.499  79.942  80.621  1.00  0.00     0.293 HD
ENDBRANCH   6  24
BRANCH   8  26
ATOM     26  O   UNL     1     -23.032  79.044  81.728  1.00  0.00    -0.508 OA
ATOM     27  H   UNL     1     -23.068  78.033  81.800  1.00  0.00     0.293 HD
ENDBRANCH   8  26
TORSDOF 6
ENDMDL
MODEL 8
REMARK VINA RESULT:    -6.513      4.712      8.889
REMARK INTER + INTRA:          -7.904
REMARK INTER:                  -7.672
REMARK INTRA:                  -0.232
REMARK UNBOUND:                -0.058
REMARK SMILES O=c1c(O)c(-c2ccc(O)c(O)c2)oc2cc(O)cc(O)c12
REMARK SMILES IDX 5 1 3 2 2 3 1 4 22 5 20 6 19 7 17 8 16 9 15 10 14 11 6 12
REMARK SMILES IDX 7 13 8 14 9 15 13 16 11 17 10 18 12 20 4 22 21 24 18 26
REMARK H PARENT 10 19 12 21 4 23 21 25 18 27
REMARK Flexibility Score: inf
ROOT
ATOM      1  C   UNL     1     -27.621  87.483  76.667  1.00  0.00     0.180 A 
ATOM      2  C   UNL     1     -26.299  87.676  76.221  1.00  0.00     0.208 A 
ATOM      3  C   UNL     1     -25.638  86.617  75.579  1.00  0.00     0.238 A 
ATOM      4  O   UNL     1     -24.458  86.782  75.167  1.00  0.00    -0.285 OA
ATOM      5  C   UNL     1     -26.298  85.382  75.412  1.00  0.00     0.111 A 
ATOM      6  C   UNL     1     -25.702  84.265  74.781  1.00  0.00     0.134 A 
ATOM      7  C   UNL     1     -26.422  83.067  74.663  1.00  0.00     0.093 A 
ATOM      8  C   UNL     1     -27.721  82.964  75.161  1.00  0.00     0.123 A 
ATOM      9  C   UNL     1     -28.317  84.065  75.786  1.00  0.00     0.094 A 
ATOM     10  C   UNL     1     -27.617  85.268  75.913  1.00  0.00     0.146 A 
ATOM     11  O   UNL     1     -28.207  86.300  76.505  1.00  0.00    -0.452 OA
ENDROOT
BRANCH   1  12
ATOM     12  C   UNL     1     -28.391  88.557  77.334  1.00  0.00     0.025 A 
ATOM     13  C   UNL     1     -29.418  89.208  76.634  1.00  0.00     0.016 A 
ATOM     14  C   UNL     1     -30.145  90.238  77.236  1.00  0.00     0.051 A 
ATOM     15  C   UNL     1     -29.846  90.644  78.539  1.00  0.00     0.157 A 
ATOM     16  C   UNL     1     -28.079  88.982  78.638  1.00  0.00     0.062 A 
ATOM     17  C   UNL     1     -28.804  90.017  79.244  1.00  0.00     0.158 A 
BRANCH  15  18
ATOM     18  O   UNL     1     -30.590  91.674  79.116  1.00  0.00    -0.504 OA
ATOM     19  H   UNL     1     -30.349  92.650  78.986  1.00  0.00     0.293 HD
ENDBRANCH  15  18
BRANCH  17  20
ATOM     20  O   UNL     1     -28.492  90.428  80.539  1.00  0.00    -0.504 OA
ATOM     21  H   UNL     1     -27.547  90.373  80.899  1.00  0.00     0.293 HD
ENDBRANCH  17  20
ENDBRANCH   1  12
BRANCH   2  22
ATOM     22  O   UNL     1     -25.650  88.894  76.443  1.00  0.00    -0.502 OA
ATOM     23  H   UNL     1     -24.738  88.951  76.878  1.00  0.00     0.293 HD
ENDBRANCH   2  22
BRANCH   6  24
ATOM     24  O   UNL     1     -24.404  84.335  74.274  1.00  0.00    -0.507 OA
ATOM     25  H   UNL     1     -23.714  83.620  74.474  1.00  0.00     0.293 HD
ENDBRANCH   6  24
BRANCH   8  26
ATOM     26  O   UNL     1     -28.414  81.762  75.031  1.00  0.00    -0.508 OA
ATOM     27  H   UNL     1     -28.410  81.066  75.768  1.00  0.00     0.293 HD
ENDBRANCH   8  26
TORSDOF 6
ENDMDL
MODEL 9
REMARK VINA RESULT:    -6.501      3.888      5.919
REMARK INTER + INTRA:          -7.889
REMARK INTER:                  -7.577
REMARK INTRA:                  -0.311
REMARK UNBOUND:                -0.058
REMARK SMILES O=c1c(O)c(-c2ccc(O)c(O)c2)oc2cc(O)cc(O)c12
REMARK SMILES IDX 5 1 3 2 2 3 1 4 22 5 20 6 19 7 17 8 16 9 15 10 14 11 6 12
REMARK SMILES IDX 7 13 8 14 9 15 13 16 11 17 10 18 12 20 4 22 21 24 18 26
REMARK H PARENT 10 19 12 21 4 23 21 25 18 27
REMARK Flexibility Score: inf
ROOT
ATOM      1  C   UNL     1     -25.325  92.168  83.090  1.00  0.00     0.180 A 
ATOM      2  C   UNL     1     -23.971  92.551  83.144  1.00  0.00     0.208 A 
ATOM      3  C   UNL     1     -23.470  93.412  82.156  1.00  0.00     0.238 A 
ATOM      4  O   UNL     1     -22.262  93.770  82.200  1.00  0.00    -0.285 OA
ATOM      5  C   UNL     1     -24.320  93.859  81.123  1.00  0.00     0.111 A 
ATOM      6  C   UNL     1     -23.894  94.724  80.087  1.00  0.00     0.134 A 
ATOM      7  C   UNL     1     -24.799  95.114  79.090  1.00  0.00     0.093 A 
ATOM      8  C   UNL     1     -26.118  94.659  79.108  1.00  0.00     0.123 A 
ATOM      9  C   UNL     1     -26.547  93.805  80.128  1.00  0.00     0.094 A 
ATOM     10  C   UNL     1     -25.661  93.405  81.132  1.00  0.00     0.146 A 
ATOM     11  O   UNL     1     -26.094  92.597  82.094  1.00  0.00    -0.452 OA
ENDROOT
BRANCH   1  12
ATOM     12  C   UNL     1     -25.933  91.279  84.107  1.00  0.00     0.025 A 
ATOM     13  C   UNL     1     -26.159  89.929  83.797  1.00  0.00     0.016 A 
ATOM     14  C   UNL     1     -26.748  89.076  84.732  1.00  0.00     0.051 A 
ATOM     15  C   UNL     1     -27.136  89.562  85.985  1.00  0.00     0.157 A 
ATOM     16  C   UNL     1     -26.342  91.770  85.360  1.00  0.00     0.062 A 
ATOM     17  C   UNL     1     -26.937  90.917  86.300  1.00  0.00     0.158 A 
BRANCH  15  18
ATOM     18  O   UNL     1     -27.721  88.686  86.900  1.00  0.00    -0.504 OA
ATOM     19  H   UNL     1     -28.588  88.905  87.377  1.00  0.00     0.293 HD
ENDBRANCH  15  18
BRANCH  17  20
ATOM     20  O   UNL     1     -27.335  91.409  87.542  1.00  0.00    -0.504 OA
ATOM     21  H   UNL     1     -26.874  92.204  87.969  1.00  0.00     0.293 HD
ENDBRANCH  17  20
ENDBRANCH   1  12
BRANCH   2  22
ATOM     22  O   UNL     1     -23.137  92.055  84.150  1.00  0.00    -0.502 OA
ATOM     23  H   UNL     1     -23.461  91.399  84.849  1.00  0.00     0.293 HD
ENDBRANCH   2  22
BRANCH   6  24
ATOM     24  O   UNL     1     -22.580  95.194  80.041  1.00  0.00    -0.507 OA
ATOM     25  H   UNL     1     -22.351  96.157  80.259  1.00  0.00     0.293 HD
ENDBRANCH   6  24
BRANCH   8  26
ATOM     26  O   UNL     1     -26.997  95.063  78.104  1.00  0.00    -0.508 OA
ATOM     27  H   UNL     1     -27.295  94.426  77.374  1.00  0.00     0.293 HD
ENDBRANCH   8  26
TORSDOF 6
ENDMDL
