MODEL 1
REMARK VINA RESULT:    -6.149      0.000      0.000
REMARK INTER + INTRA:          -6.509
REMARK INTER:                  -6.509
REMARK INTRA:                   0.000
REMARK UNBOUND:                 0.000
REMARK SMILES O=c1ccc2cc(O)c(O)cc2o1
REMARK SMILES IDX 4 1 3 2 2 3 1 4 13 5 12 6 11 7 9 8 7 9 6 10 5 11 8 12 10 14
REMARK H PARENT 8 13 10 15
REMARK Flexibility Score: inf
ROOT
ATOM      1  C   UNL     1     -32.592   8.875 -33.877  1.00  0.00     0.019 A 
ATOM      2  C   UNL     1     -32.291   9.263 -32.572  1.00  0.00     0.094 A 
ATOM      3  C   UNL     1     -32.531  10.585 -32.184  1.00  0.00     0.336 A 
ATOM      4  O   UNL     1     -32.267  10.954 -31.011  1.00  0.00    -0.246 OA
ATOM      5  O   UNL     1     -33.038  11.459 -33.051  1.00  0.00    -0.423 OA
ATOM      6  C   UNL     1     -33.338  11.131 -34.305  1.00  0.00     0.142 A 
ATOM      7  C   UNL     1     -33.870  12.093 -35.171  1.00  0.00     0.098 A 
ATOM      8  C   UNL     1     -34.187  11.753 -36.494  1.00  0.00     0.161 A 
ATOM      9  C   UNL     1     -33.974  10.445 -36.952  1.00  0.00     0.158 A 
ATOM     10  C   UNL     1     -33.442   9.476 -36.088  1.00  0.00     0.062 A 
ATOM     11  C   UNL     1     -33.123   9.815 -34.767  1.00  0.00     0.022 A 
ENDROOT
BRANCH   9  12
ATOM     12  O   UNL     1     -34.294  10.115 -38.269  1.00  0.00    -0.504 OA
ATOM     13  H   UNL     1     -33.654   9.591 -38.855  1.00  0.00     0.293 HD
ENDBRANCH   9  12
BRANCH   8  14
ATOM     14  O   UNL     1     -34.717  12.709 -37.358  1.00  0.00    -0.504 OA
ATOM     15  H   UNL     1     -35.717  12.815 -37.483  1.00  0.00     0.293 HD
ENDBRANCH   8  14
TORSDOF 2
ENDMDL
MODEL 2
REMARK VINA RESULT:    -6.032      1.547      4.484
REMARK INTER + INTRA:          -6.385
REMARK INTER:                  -6.385
REMARK INTRA:                   0.000
REMARK UNBOUND:                 0.000
REMARK SMILES O=c1ccc2cc(O)c(O)cc2o1
REMARK SMILES IDX 4 1 3 2 2 3 1 4 13 5 12 6 11 7 9 8 7 9 6 10 5 11 8 12 10 14
REMARK H PARENT 8 13 10 15
REMARK Flexibility Score: inf
ROOT
ATOM      1  C   UNL     1     -31.510   8.889 -34.726  1.00  0.00     0.019 A 
ATOM      2  C   UNL     1     -31.796   8.875 -36.091  1.00  0.00     0.094 A 
ATOM      3  C   UNL     1     -32.807   9.708 -36.582  1.00  0.00     0.336 A 
ATOM      4  O   UNL     1     -33.079   9.710 -37.810  1.00  0.00    -0.246 OA
ATOM      5  O   UNL     1     -33.486  10.500 -35.756  1.00  0.00    -0.423 OA
ATOM      6  C   UNL     1     -33.246  10.544 -34.448  1.00  0.00     0.142 A 
ATOM      7  C   UNL     1     -33.992  11.398 -33.628  1.00  0.00     0.098 A 
ATOM      8  C   UNL     1     -33.744  11.448 -32.249  1.00  0.00     0.161 A 
ATOM      9  C   UNL     1     -32.744  10.640 -31.687  1.00  0.00     0.158 A 
ATOM     10  C   UNL     1     -31.992   9.783 -32.504  1.00  0.00     0.062 A 
ATOM     11  C   UNL     1     -32.240   9.732 -33.881  1.00  0.00     0.022 A 
ENDROOT
BRANCH   9  12
ATOM     12  O   UNL     1     -32.503  10.697 -30.315  1.00  0.00    -0.504 OA
ATOM     13  H   UNL     1     -32.019  11.482 -29.893  1.00  0.00     0.293 HD
ENDBRANCH   9  12
BRANCH   8  14
ATOM     14  O   UNL     1     -34.485  12.297 -31.430  1.00  0.00    -0.504 OA
ATOM     15  H   UNL     1     -34.472  12.206 -30.421  1.00  0.00     0.293 HD
ENDBRANCH   8  14
TORSDOF 2
ENDMDL
MODEL 3
REMARK VINA RESULT:    -6.020      0.928      0.999
REMARK INTER + INTRA:          -6.372
REMARK INTER:                  -6.372
REMARK INTRA:                   0.000
REMARK UNBOUND:                 0.000
REMARK SMILES O=c1ccc2cc(O)c(O)cc2o1
REMARK SMILES IDX 4 1 3 2 2 3 1 4 13 5 12 6 11 7 9 8 7 9 6 10 5 11 8 12 10 14
REMARK H PARENT 8 13 10 15
REMARK Flexibility Score: inf
ROOT
ATOM      1  C   UNL     1     -31.915   9.657 -33.118  1.00  0.00     0.019 A 
ATOM      2  C   UNL     1     -32.093  10.239 -31.863  1.00  0.00     0.094 A 
ATOM      3  C   UNL     1     -32.876  11.393 -31.755  1.00  0.00     0.336 A 
ATOM      4  O   UNL     1     -33.049  11.932 -30.631  1.00  0.00    -0.246 OA
ATOM      5  O   UNL     1     -33.441  11.927 -32.835  1.00  0.00    -0.423 OA
ATOM      6  C   UNL     1     -33.296  11.405 -34.050  1.00  0.00     0.142 A 
ATOM      7  C   UNL     1     -33.915  12.011 -35.149  1.00  0.00     0.098 A 
ATOM      8  C   UNL     1     -33.765  11.465 -36.432  1.00  0.00     0.161 A 
ATOM      9  C   UNL     1     -32.994  10.308 -36.617  1.00  0.00     0.158 A 
ATOM     10  C   UNL     1     -32.373   9.696 -35.518  1.00  0.00     0.062 A 
ATOM     11  C   UNL     1     -32.521  10.241 -34.236  1.00  0.00     0.022 A 
ENDROOT
BRANCH   9  12
ATOM     12  O   UNL     1     -32.852   9.771 -37.896  1.00  0.00    -0.504 OA
ATOM     13  H   UNL     1     -31.964   9.409 -38.224  1.00  0.00     0.293 HD
ENDBRANCH   9  12
BRANCH   8  14
ATOM     14  O   UNL     1     -34.380  12.066 -37.529  1.00  0.00    -0.504 OA
ATOM     15  H   UNL     1     -34.809  12.982 -37.460  1.00  0.00     0.293 HD
ENDBRANCH   8  14
TORSDOF 2
ENDMDL
MODEL 4
REMARK VINA RESULT:    -5.952      1.493      4.979
REMARK INTER + INTRA:          -6.300
REMARK INTER:                  -6.300
REMARK INTRA:                   0.000
REMARK UNBOUND:                 0.000
REMARK SMILES O=c1ccc2cc(O)c(O)cc2o1
REMARK SMILES IDX 4 1 3 2 2 3 1 4 13 5 12 6 11 7 9 8 7 9 6 10 5 11 8 12 10 14
REMARK H PARENT 8 13 10 15
REMARK Flexibility Score: inf
ROOT
ATOM      1  C   UNL     1     -33.978  11.886 -36.181  1.00  0.00     0.019 A 
ATOM      2  C   UNL     1     -34.315  11.129 -37.303  1.00  0.00     0.094 A 
ATOM      3  C   UNL     1     -34.448   9.743 -37.171  1.00  0.00     0.336 A 
ATOM      4  O   UNL     1     -34.753   9.043 -38.172  1.00  0.00    -0.246 OA
ATOM      5  O   UNL     1     -34.254   9.157 -35.993  1.00  0.00    -0.423 OA
ATOM      6  C   UNL     1     -33.930   9.841 -34.898  1.00  0.00     0.142 A 
ATOM      7  C   UNL     1     -33.739   9.171 -33.685  1.00  0.00     0.098 A 
ATOM      8  C   UNL     1     -33.397   9.887 -32.529  1.00  0.00     0.161 A 
ATOM      9  C   UNL     1     -33.248  11.280 -32.586  1.00  0.00     0.158 A 
ATOM     10  C   UNL     1     -33.439  11.958 -33.799  1.00  0.00     0.062 A 
ATOM     11  C   UNL     1     -33.779  11.243 -34.955  1.00  0.00     0.022 A 
ENDROOT
BRANCH   9  12
ATOM     12  O   UNL     1     -32.909  11.984 -31.431  1.00  0.00    -0.504 OA
ATOM     13  H   UNL     1     -32.640  11.507 -30.578  1.00  0.00     0.293 HD
ENDBRANCH   9  12
BRANCH   8  14
ATOM     14  O   UNL     1     -33.206   9.221 -31.320  1.00  0.00    -0.504 OA
ATOM     15  H   UNL     1     -32.434   8.579 -31.184  1.00  0.00     0.293 HD
ENDBRANCH   8  14
TORSDOF 2
ENDMDL
MODEL 5
REMARK VINA RESULT:    -5.686      1.030      4.517
REMARK INTER + INTRA:          -6.018
REMARK INTER:                  -6.018
REMARK INTRA:                   0.000
REMARK UNBOUND:                 0.000
REMARK SMILES O=c1ccc2cc(O)c(O)cc2o1
REMARK SMILES IDX 4 1 3 2 2 3 1 4 13 5 12 6 11 7 9 8 7 9 6 10 5 11 8 12 10 14
REMARK H PARENT 8 13 10 15
REMARK Flexibility Score: inf
ROOT
ATOM      1  C   UNL     1     -33.421   9.635 -36.326  1.00  0.00     0.019 A 
ATOM      2  C   UNL     1     -33.964  10.508 -37.269  1.00  0.00     0.094 A 
ATOM      3  C   UNL     1     -34.319  11.801 -36.871  1.00  0.00     0.336 A 
ATOM      4  O   UNL     1     -34.809  12.604 -37.707  1.00  0.00    -0.246 OA
ATOM      5  O   UNL     1     -34.143  12.190 -35.611  1.00  0.00    -0.423 OA
ATOM      6  C   UNL     1     -33.630  11.389 -34.680  1.00  0.00     0.142 A 
ATOM      7  C   UNL     1     -33.467  11.853 -33.370  1.00  0.00     0.098 A 
ATOM      8  C   UNL     1     -32.927  11.013 -32.386  1.00  0.00     0.161 A 
ATOM      9  C   UNL     1     -32.547   9.703 -32.712  1.00  0.00     0.158 A 
ATOM     10  C   UNL     1     -32.707   9.233 -34.024  1.00  0.00     0.062 A 
ATOM     11  C   UNL     1     -33.247  10.071 -35.008  1.00  0.00     0.022 A 
ENDROOT
BRANCH   9  12
ATOM     12  O   UNL     1     -32.010   8.875 -31.727  1.00  0.00    -0.504 OA
ATOM     13  H   UNL     1     -31.188   8.308 -31.901  1.00  0.00     0.293 HD
ENDBRANCH   9  12
BRANCH   8  14
ATOM     14  O   UNL     1     -32.764  11.473 -31.080  1.00  0.00    -0.504 OA
ATOM     15  H   UNL     1     -33.461  12.057 -30.632  1.00  0.00     0.293 HD
ENDBRANCH   8  14
TORSDOF 2
ENDMDL
MODEL 6
REMARK VINA RESULT:    -5.202      1.149      2.285
REMARK INTER + INTRA:          -5.506
REMARK INTER:                  -5.506
REMARK INTRA:                   0.000
REMARK UNBOUND:                 0.000
REMARK SMILES O=c1ccc2cc(O)c(O)cc2o1
REMARK SMILES IDX 4 1 3 2 2 3 1 4 13 5 12 6 11 7 9 8 7 9 6 10 5 11 8 12 10 14
REMARK H PARENT 8 13 10 15
REMARK Flexibility Score: inf
ROOT
ATOM      1  C   UNL     1     -33.943  11.905 -33.394  1.00  0.00     0.019 A 
ATOM      2  C   UNL     1     -33.402  11.568 -32.154  1.00  0.00     0.094 A 
ATOM      3  C   UNL     1     -32.509  10.494 -32.072  1.00  0.00     0.336 A 
ATOM      4  O   UNL     1     -32.011  10.175 -30.961  1.00  0.00    -0.246 OA
ATOM      5  O   UNL     1     -32.183   9.806 -33.162  1.00  0.00    -0.423 OA
ATOM      6  C   UNL     1     -32.675  10.093 -34.365  1.00  0.00     0.142 A 
ATOM      7  C   UNL     1     -32.294   9.335 -35.476  1.00  0.00     0.098 A 
ATOM      8  C   UNL     1     -32.811   9.633 -36.745  1.00  0.00     0.161 A 
ATOM      9  C   UNL     1     -33.711  10.697 -36.903  1.00  0.00     0.158 A 
ATOM     10  C   UNL     1     -34.096  11.462 -35.792  1.00  0.00     0.062 A 
ATOM     11  C   UNL     1     -33.582  11.164 -34.524  1.00  0.00     0.022 A 
ENDROOT
BRANCH   9  12
ATOM     12  O   UNL     1     -34.219  10.988 -38.169  1.00  0.00    -0.504 OA
ATOM     13  H   UNL     1     -33.626  11.348 -38.909  1.00  0.00     0.293 HD
ENDBRANCH   9  12
BRANCH   8  14
ATOM     14  O   UNL     1     -32.433   8.879 -37.854  1.00  0.00    -0.504 OA
ATOM     15  H   UNL     1     -32.023   9.310 -38.675  1.00  0.00     0.293 HD
ENDBRANCH   8  14
TORSDOF 2
ENDMDL
MODEL 7
REMARK VINA RESULT:    -4.437      1.314      1.678
REMARK INTER + INTRA:          -4.696
REMARK INTER:                  -4.696
REMARK INTRA:                   0.000
REMARK UNBOUND:                 0.000
REMARK SMILES O=c1ccc2cc(O)c(O)cc2o1
REMARK SMILES IDX 4 1 3 2 2 3 1 4 13 5 12 6 11 7 9 8 7 9 6 10 5 11 8 12 10 14
REMARK H PARENT 8 13 10 15
REMARK Flexibility Score: inf
ROOT
ATOM      1  C   UNL     1     -32.929   8.974 -34.843  1.00  0.00     0.019 A 
ATOM      2  C   UNL     1     -32.791   9.689 -33.653  1.00  0.00     0.094 A 
ATOM      3  C   UNL     1     -33.290  10.994 -33.583  1.00  0.00     0.336 A 
ATOM      4  O   UNL     1     -33.176  11.653 -32.518  1.00  0.00    -0.246 OA
ATOM      5  O   UNL     1     -33.886  11.543 -34.638  1.00  0.00    -0.423 OA
ATOM      6  C   UNL     1     -34.038  10.898 -35.792  1.00  0.00     0.142 A 
ATOM      7  C   UNL     1     -34.675  11.527 -36.867  1.00  0.00     0.098 A 
ATOM      8  C   UNL     1     -34.837  10.852 -38.085  1.00  0.00     0.161 A 
ATOM      9  C   UNL     1     -34.361   9.540 -38.228  1.00  0.00     0.158 A 
ATOM     10  C   UNL     1     -33.723   8.903 -37.153  1.00  0.00     0.062 A 
ATOM     11  C   UNL     1     -33.560   9.578 -35.936  1.00  0.00     0.022 A 
ENDROOT
BRANCH   9  12
ATOM     12  O   UNL     1     -34.527   8.875 -39.442  1.00  0.00    -0.504 OA
ATOM     13  H   UNL     1     -34.967   7.963 -39.492  1.00  0.00     0.293 HD
ENDBRANCH   9  12
BRANCH   8  14
ATOM     14  O   UNL     1     -35.470  11.476 -39.158  1.00  0.00    -0.504 OA
ATOM     15  H   UNL     1     -36.014  12.322 -39.033  1.00  0.00     0.293 HD
ENDBRANCH   8  14
TORSDOF 2
ENDMDL
MODEL 8
REMARK VINA RESULT:    -4.274      2.148      5.236
REMARK INTER + INTRA:          -4.524
REMARK INTER:                  -4.524
REMARK INTRA:                   0.000
REMARK UNBOUND:                 0.000
REMARK SMILES O=c1ccc2cc(O)c(O)cc2o1
REMARK SMILES IDX 4 1 3 2 2 3 1 4 13 5 12 6 11 7 9 8 7 9 6 10 5 11 8 12 10 14
REMARK H PARENT 8 13 10 15
REMARK Flexibility Score: inf
ROOT
ATOM      1  C   UNL     1     -34.057   8.875 -38.957  1.00  0.00     0.019 A 
ATOM      2  C   UNL     1     -35.084   9.271 -39.813  1.00  0.00     0.094 A 
ATOM      3  C   UNL     1     -35.783  10.450 -39.534  1.00  0.00     0.336 A 
ATOM      4  O   UNL     1     -36.713  10.824 -40.295  1.00  0.00    -0.246 OA
ATOM      5  O   UNL     1     -35.473  11.180 -38.466  1.00  0.00    -0.423 OA
ATOM      6  C   UNL     1     -34.501  10.838 -37.623  1.00  0.00     0.142 A 
ATOM      7  C   UNL     1     -34.219  11.646 -36.517  1.00  0.00     0.098 A 
ATOM      8  C   UNL     1     -33.197  11.290 -35.625  1.00  0.00     0.161 A 
ATOM      9  C   UNL     1     -32.452  10.121 -35.842  1.00  0.00     0.158 A 
ATOM     10  C   UNL     1     -32.730   9.308 -36.951  1.00  0.00     0.062 A 
ATOM     11  C   UNL     1     -33.752   9.662 -37.841  1.00  0.00     0.022 A 
ENDROOT
BRANCH   9  12
ATOM     12  O   UNL     1     -31.437   9.776 -34.952  1.00  0.00    -0.504 OA
ATOM     13  H   UNL     1     -31.060  10.445 -34.290  1.00  0.00     0.293 HD
ENDBRANCH   9  12
BRANCH   8  14
ATOM     14  O   UNL     1     -32.914  12.093 -34.522  1.00  0.00    -0.504 OA
ATOM     15  H   UNL     1     -33.581  12.773 -34.176  1.00  0.00     0.293 HD
ENDBRANCH   8  14
TORSDOF 2
ENDMDL
