MODEL 1
REMARK VINA RESULT:    35.907      0.000      0.000
REMARK INTER + INTRA:          47.789
REMARK INTER:                  47.452
REMARK INTRA:                   0.337
REMARK UNBOUND:                 0.337
REMARK SMILES CC[C@H](C=C[C@@H](C)[C@@H]1CC[C@H]2[C@@H]3CC=C4C[C@H](O)CC[C@]4(C)[C@H]3CC[C@]21C)C(C)C
REMARK SMILES IDX 6 1 7 2 5 3 4 4 3 5 2 6 1 7 28 8 29 9 30 10 8 11 9 12 26 13
REMARK SMILES IDX 10 14 11 15 25 16 27 17 12 18 24 19 23 20 13 21 21 22 14 23
REMARK SMILES IDX 15 24 20 25 22 26 16 27 19 28 17 29 18 30
REMARK H PARENT 18 31
REMARK Flexibility Score: inf
ROOT
ATOM      1  C   UNL     1      14.353  12.820  39.295  1.00  0.00     0.012 C 
ATOM      2  C   UNL     1      13.503  14.105  39.338  1.00  0.00     0.012 C 
ENDROOT
BRANCH   1   3
ATOM      3  C   UNL     1      15.462  13.003  40.309  1.00  0.00    -0.028 C 
ATOM      4  C   UNL     1      16.580  13.688  40.012  1.00  0.00    -0.027 C 
BRANCH   4   5
ATOM      5  C   UNL     1      17.774  13.793  40.943  1.00  0.00     0.014 C 
BRANCH   5   6
ATOM      6  C   UNL     1      17.327  13.965  42.419  1.00  0.00     0.004 C 
ATOM      7  C   UNL     1      18.503  14.119  43.387  1.00  0.00     0.004 C 
ENDBRANCH   5   6
BRANCH   5   8
ATOM      8  C   UNL     1      18.826  12.660  40.706  1.00  0.00    -0.011 C 
ATOM      9  C   UNL     1      20.251  13.012  41.166  1.00  0.00     0.008 C 
ATOM     10  C   UNL     1      18.380  11.341  41.358  1.00  0.00     0.008 C 
ENDBRANCH   5   8
ENDBRANCH   4   5
ENDBRANCH   1   3
BRANCH   1  11
ATOM     11  C   UNL     1      14.957  12.509  37.875  1.00  0.00     0.002 C 
ATOM     12  C   UNL     1      15.278  13.781  37.079  1.00  0.00     0.005 C 
ATOM     13  C   UNL     1      14.029  11.702  36.883  1.00  0.00    -0.026 C 
ATOM     14  C   UNL     1      13.998  14.124  36.354  1.00  0.00     0.005 C 
ATOM     15  C   UNL     1      13.379  12.778  35.945  1.00  0.00    -0.001 C 
ATOM     16  C   UNL     1      14.926  10.729  36.068  1.00  0.00     0.007 C 
ATOM     17  C   UNL     1      12.913  10.871  37.576  1.00  0.00     0.012 C 
ATOM     18  C   UNL     1      13.562  12.519  34.410  1.00  0.00     0.000 C 
ATOM     19  C   UNL     1      14.183  10.046  34.915  1.00  0.00     0.005 C 
ATOM     20  C   UNL     1      13.350  11.027  34.033  1.00  0.00     0.003 C 
ATOM     21  C   UNL     1      12.577  13.407  33.613  1.00  0.00     0.031 C 
ATOM     22  C   UNL     1      13.530  10.783  32.482  1.00  0.00    -0.008 C 
ATOM     23  C   UNL     1      12.407  13.015  32.173  1.00  0.00    -0.027 C 
ATOM     24  C   UNL     1      12.694  11.791  31.685  1.00  0.00    -0.065 C 
ATOM     25  C   UNL     1      13.039   9.339  32.148  1.00  0.00     0.014 C 
ATOM     26  C   UNL     1      15.011  10.957  32.030  1.00  0.00     0.016 C 
ATOM     27  C   UNL     1      12.404  11.517  30.220  1.00  0.00     0.063 C 
ATOM     28  C   UNL     1      12.857   9.071  30.645  1.00  0.00     0.033 C 
ATOM     29  C   UNL     1      11.902  10.084  30.003  1.00  0.00     0.118 C 
BRANCH  29  30
ATOM     30  O   UNL     1      10.612   9.932  30.546  1.00  0.00    -0.393 OA
ATOM     31  H   UNL     1      10.529   8.982  30.824  1.00  0.00     0.210 HD
ENDBRANCH  29  30
ENDBRANCH   1  11
TORSDOF 6
ENDMDL
MODEL 2
REMARK VINA RESULT:    37.255      1.464      2.217
REMARK INTER + INTRA:          49.570
REMARK INTER:                  48.378
REMARK INTRA:                   1.192
REMARK UNBOUND:                 0.337
REMARK SMILES CC[C@H](C=C[C@@H](C)[C@@H]1CC[C@H]2[C@@H]3CC=C4C[C@H](O)CC[C@]4(C)[C@H]3CC[C@]21C)C(C)C
REMARK SMILES IDX 6 1 7 2 5 3 4 4 3 5 2 6 1 7 28 8 29 9 30 10 8 11 9 12 26 13
REMARK SMILES IDX 10 14 11 15 25 16 27 17 12 18 24 19 23 20 13 21 21 22 14 23
REMARK SMILES IDX 15 24 20 25 22 26 16 27 19 28 17 29 18 30
REMARK H PARENT 18 31
REMARK Flexibility Score: inf
ROOT
ATOM      1  C   UNL     1      15.189  11.599  37.633  1.00  0.00     0.012 C 
ATOM      2  C   UNL     1      13.793  11.626  38.284  1.00  0.00     0.012 C 
ENDROOT
BRANCH   1   3
ATOM      3  C   UNL     1      16.134  12.265  38.610  1.00  0.00    -0.028 C 
ATOM      4  C   UNL     1      15.679  12.905  39.702  1.00  0.00    -0.027 C 
BRANCH   4   5
ATOM      5  C   UNL     1      16.568  13.697  40.643  1.00  0.00     0.014 C 
BRANCH   5   6
ATOM      6  C   UNL     1      15.841  14.009  41.978  1.00  0.00     0.004 C 
ATOM      7  C   UNL     1      16.735  13.818  43.207  1.00  0.00     0.004 C 
ENDBRANCH   5   6
BRANCH   5   8
ATOM      8  C   UNL     1      17.991  13.067  40.805  1.00  0.00    -0.011 C 
ATOM      9  C   UNL     1      19.056  14.038  41.340  1.00  0.00     0.008 C 
ATOM     10  C   UNL     1      17.944  11.808  41.687  1.00  0.00     0.008 C 
ENDBRANCH   5   8
ENDBRANCH   4   5
ENDBRANCH   1   3
BRANCH   1  11
ATOM     11  C   UNL     1      15.250  12.322  36.236  1.00  0.00     0.002 C 
ATOM     12  C   UNL     1      14.813  13.791  36.313  1.00  0.00     0.005 C 
ATOM     13  C   UNL     1      14.312  11.739  35.105  1.00  0.00    -0.026 C 
ATOM     14  C   UNL     1      13.315  13.765  36.127  1.00  0.00     0.005 C 
ATOM     15  C   UNL     1      13.043  12.660  35.094  1.00  0.00    -0.001 C 
ATOM     16  C   UNL     1      15.073  11.832  33.754  1.00  0.00     0.007 C 
ATOM     17  C   UNL     1      13.884  10.261  35.323  1.00  0.00     0.012 C 
ATOM     18  C   UNL     1      12.679  13.272  33.699  1.00  0.00     0.000 C 
ATOM     19  C   UNL     1      14.193  11.505  32.543  1.00  0.00     0.005 C 
ATOM     20  C   UNL     1      12.818  12.240  32.545  1.00  0.00     0.003 C 
ATOM     21  C   UNL     1      11.234  13.826  33.736  1.00  0.00     0.031 C 
ATOM     22  C   UNL     1      12.439  12.870  31.146  1.00  0.00    -0.008 C 
ATOM     23  C   UNL     1      10.644  14.125  32.387  1.00  0.00    -0.027 C 
ATOM     24  C   UNL     1      11.087  13.584  31.234  1.00  0.00    -0.065 C 
ATOM     25  C   UNL     1      12.339  11.718  30.097  1.00  0.00     0.014 C 
ATOM     26  C   UNL     1      13.485  13.925  30.677  1.00  0.00     0.016 C 
ATOM     27  C   UNL     1      10.346  13.925  29.952  1.00  0.00     0.063 C 
ATOM     28  C   UNL     1      11.675  12.133  28.774  1.00  0.00     0.033 C 
ATOM     29  C   UNL     1      10.278  12.722  29.004  1.00  0.00     0.118 C 
BRANCH  29  30
ATOM     30  O   UNL     1       9.426  11.732  29.530  1.00  0.00    -0.393 OA
ATOM     31  H   UNL     1       9.663  11.632  30.489  1.00  0.00     0.210 HD
ENDBRANCH  29  30
ENDBRANCH   1  11
TORSDOF 6
ENDMDL
