MODEL 1
REMARK VINA RESULT:    -3.599      0.000      0.000
REMARK INTER + INTRA:          -9.127
REMARK INTER:                  -6.966
REMARK INTRA:                  -2.161
REMARK UNBOUND:                -2.161
REMARK SMILES CCCCCCCCCCCCCCCCCC(=O)[O-]
REMARK SMILES IDX 10 1 11 2 12 3 13 4 14 5 15 6 16 7 17 8 18 9 19 10 20 11
REMARK SMILES IDX 9 12 8 13 7 14 6 15 5 16 4 17 3 18 2 19 1 20
REMARK H PARENT
REMARK Flexibility Score: inf
ROOT
ATOM      1  C   UNL     1     -17.766  29.709  23.342  1.00  0.00     0.000 C 
ENDROOT
BRANCH   1   2
ATOM      2  C   UNL     1     -18.934  30.607  23.777  1.00  0.00     0.000 C 
BRANCH   2   3
ATOM      3  C   UNL     1     -18.525  32.080  23.924  1.00  0.00     0.000 C 
BRANCH   3   4
ATOM      4  C   UNL     1     -19.596  33.007  23.333  1.00  0.00     0.000 C 
BRANCH   4   5
ATOM      5  C   UNL     1     -20.930  32.287  23.066  1.00  0.00     0.000 C 
BRANCH   5   6
ATOM      6  C   UNL     1     -21.451  32.394  21.619  1.00  0.00     0.000 C 
BRANCH   6   7
ATOM      7  C   UNL     1     -22.550  33.452  21.395  1.00  0.00     0.006 C 
BRANCH   7   8
ATOM      8  C   UNL     1     -22.069  34.729  20.687  1.00  0.00     0.053 C 
BRANCH   8   9
ATOM      9  C   UNL     1     -22.125  35.924  21.589  1.00  0.00     0.041 C 
ATOM     10  O   UNL     1     -21.811  35.816  22.804  1.00  0.00    -0.550 OA
ATOM     11  O   UNL     1     -22.561  37.147  21.098  1.00  0.00    -0.550 OA
ENDBRANCH   8   9
ENDBRANCH   7   8
ENDBRANCH   6   7
ENDBRANCH   5   6
ENDBRANCH   4   5
ENDBRANCH   3   4
ENDBRANCH   2   3
ENDBRANCH   1   2
BRANCH   1  12
ATOM     12  C   UNL     1     -18.096  28.868  22.095  1.00  0.00     0.000 C 
BRANCH  12  13
ATOM     13  C   UNL     1     -19.567  29.032  21.657  1.00  0.00    -0.000 C 
BRANCH  13  14
ATOM     14  C   UNL     1     -19.726  29.719  20.289  1.00  0.00    -0.000 C 
BRANCH  14  15
ATOM     15  C   UNL     1     -20.307  28.784  19.217  1.00  0.00    -0.000 C 
BRANCH  15  16
ATOM     16  C   UNL     1     -21.179  27.662  19.823  1.00  0.00    -0.000 C 
BRANCH  16  17
ATOM     17  C   UNL     1     -22.683  27.992  19.850  1.00  0.00    -0.000 C 
BRANCH  17  18
ATOM     18  C   UNL     1     -23.042  29.428  19.424  1.00  0.00    -0.000 C 
BRANCH  18  19
ATOM     19  C   UNL     1     -24.112  30.111  20.294  1.00  0.00    -0.003 C 
ATOM     20  C   UNL     1     -23.941  29.823  21.785  1.00  0.00     0.004 C 
ENDBRANCH  18  19
ENDBRANCH  17  18
ENDBRANCH  16  17
ENDBRANCH  15  16
ENDBRANCH  14  15
ENDBRANCH  13  14
ENDBRANCH  12  13
ENDBRANCH   1  12
TORSDOF 16
ENDMDL
MODEL 2
REMARK VINA RESULT:    -3.573      1.434      2.765
REMARK INTER + INTRA:          -9.076
REMARK INTER:                  -7.176
REMARK INTRA:                  -1.899
REMARK UNBOUND:                -2.161
REMARK SMILES CCCCCCCCCCCCCCCCCC(=O)[O-]
REMARK SMILES IDX 10 1 11 2 12 3 13 4 14 5 15 6 16 7 17 8 18 9 19 10 20 11
REMARK SMILES IDX 9 12 8 13 7 14 6 15 5 16 4 17 3 18 2 19 1 20
REMARK H PARENT
REMARK Flexibility Score: inf
ROOT
ATOM      1  C   UNL     1     -17.998  28.868  22.039  1.00  0.00     0.000 C 
ENDROOT
BRANCH   1   2
ATOM      2  C   UNL     1     -17.736  29.618  23.353  1.00  0.00     0.000 C 
BRANCH   2   3
ATOM      3  C   UNL     1     -18.928  30.482  23.790  1.00  0.00     0.000 C 
BRANCH   3   4
ATOM      4  C   UNL     1     -18.553  31.970  23.797  1.00  0.00     0.000 C 
BRANCH   4   5
ATOM      5  C   UNL     1     -19.692  32.877  23.299  1.00  0.00     0.000 C 
BRANCH   5   6
ATOM      6  C   UNL     1     -20.859  32.141  22.612  1.00  0.00     0.000 C 
BRANCH   6   7
ATOM      7  C   UNL     1     -21.842  33.045  21.842  1.00  0.00     0.006 C 
BRANCH   7   8
ATOM      8  C   UNL     1     -21.460  34.534  21.828  1.00  0.00     0.053 C 
BRANCH   8   9
ATOM      9  C   UNL     1     -22.282  35.314  20.849  1.00  0.00     0.041 C 
ATOM     10  O   UNL     1     -22.780  34.743  19.843  1.00  0.00    -0.550 OA
ATOM     11  O   UNL     1     -22.468  36.679  21.026  1.00  0.00    -0.550 OA
ENDBRANCH   8   9
ENDBRANCH   7   8
ENDBRANCH   6   7
ENDBRANCH   5   6
ENDBRANCH   4   5
ENDBRANCH   3   4
ENDBRANCH   2   3
ENDBRANCH   1   2
BRANCH   1  12
ATOM     12  C   UNL     1     -19.463  28.976  21.576  1.00  0.00     0.000 C 
BRANCH  12  13
ATOM     13  C   UNL     1     -19.584  29.617  20.177  1.00  0.00    -0.000 C 
BRANCH  13  14
ATOM     14  C   UNL     1     -20.523  28.849  19.230  1.00  0.00    -0.000 C 
BRANCH  14  15
ATOM     15  C   UNL     1     -21.957  28.740  19.773  1.00  0.00    -0.000 C 
BRANCH  15  16
ATOM     16  C   UNL     1     -22.607  27.377  19.449  1.00  0.00    -0.000 C 
BRANCH  16  17
ATOM     17  C   UNL     1     -22.067  26.214  20.303  1.00  0.00    -0.000 C 
BRANCH  17  18
ATOM     18  C   UNL     1     -21.565  24.998  19.502  1.00  0.00    -0.000 C 
BRANCH  18  19
ATOM     19  C   UNL     1     -20.034  24.883  19.396  1.00  0.00    -0.003 C 
ATOM     20  C   UNL     1     -19.306  25.456  20.611  1.00  0.00     0.004 C 
ENDBRANCH  18  19
ENDBRANCH  17  18
ENDBRANCH  16  17
ENDBRANCH  15  16
ENDBRANCH  14  15
ENDBRANCH  13  14
ENDBRANCH  12  13
ENDBRANCH   1  12
TORSDOF 16
ENDMDL
MODEL 3
REMARK VINA RESULT:    -3.547      1.811      4.401
REMARK INTER + INTRA:          -9.026
REMARK INTER:                  -7.071
REMARK INTRA:                  -1.955
REMARK UNBOUND:                -2.161
REMARK SMILES CCCCCCCCCCCCCCCCCC(=O)[O-]
REMARK SMILES IDX 10 1 11 2 12 3 13 4 14 5 15 6 16 7 17 8 18 9 19 10 20 11
REMARK SMILES IDX 9 12 8 13 7 14 6 15 5 16 4 17 3 18 2 19 1 20
REMARK H PARENT
REMARK Flexibility Score: inf
ROOT
ATOM      1  C   UNL     1     -22.062  31.671  22.740  1.00  0.00     0.000 C 
ENDROOT
BRANCH   1   2
ATOM      2  C   UNL     1     -22.172  32.243  21.319  1.00  0.00     0.000 C 
BRANCH   2   3
ATOM      3  C   UNL     1     -23.247  33.334  21.201  1.00  0.00     0.000 C 
BRANCH   3   4
ATOM      4  C   UNL     1     -22.780  34.464  20.272  1.00  0.00     0.000 C 
BRANCH   4   5
ATOM      5  C   UNL     1     -21.712  35.366  20.916  1.00  0.00     0.000 C 
BRANCH   5   6
ATOM      6  C   UNL     1     -21.992  35.765  22.379  1.00  0.00     0.000 C 
BRANCH   6   7
ATOM      7  C   UNL     1     -22.123  37.281  22.631  1.00  0.00     0.006 C 
BRANCH   7   8
ATOM      8  C   UNL     1     -22.826  38.055  21.504  1.00  0.00     0.053 C 
BRANCH   8   9
ATOM      9  C   UNL     1     -22.359  39.475  21.425  1.00  0.00     0.041 C 
ATOM     10  O   UNL     1     -21.704  39.981  22.375  1.00  0.00    -0.550 OA
ATOM     11  O   UNL     1     -22.679  40.254  20.321  1.00  0.00    -0.550 OA
ENDBRANCH   8   9
ENDBRANCH   7   8
ENDBRANCH   6   7
ENDBRANCH   5   6
ENDBRANCH   4   5
ENDBRANCH   3   4
ENDBRANCH   2   3
ENDBRANCH   1   2
BRANCH   1  12
ATOM     12  C   UNL     1     -21.160  32.522  23.653  1.00  0.00     0.000 C 
BRANCH  12  13
ATOM     13  C   UNL     1     -19.744  32.700  23.067  1.00  0.00    -0.000 C 
BRANCH  13  14
ATOM     14  C   UNL     1     -18.650  31.984  23.878  1.00  0.00    -0.000 C 
BRANCH  14  15
ATOM     15  C   UNL     1     -18.836  30.459  23.913  1.00  0.00    -0.000 C 
BRANCH  15  16
ATOM     16  C   UNL     1     -17.702  29.710  23.179  1.00  0.00    -0.000 C 
BRANCH  16  17
ATOM     17  C   UNL     1     -18.203  28.733  22.099  1.00  0.00    -0.000 C 
BRANCH  17  18
ATOM     18  C   UNL     1     -19.653  28.964  21.635  1.00  0.00    -0.000 C 
BRANCH  18  19
ATOM     19  C   UNL     1     -19.793  29.727  20.306  1.00  0.00    -0.003 C 
ATOM     20  C   UNL     1     -20.304  28.849  19.164  1.00  0.00     0.004 C 
ENDBRANCH  18  19
ENDBRANCH  17  18
ENDBRANCH  16  17
ENDBRANCH  15  16
ENDBRANCH  14  15
ENDBRANCH  13  14
ENDBRANCH  12  13
ENDBRANCH   1  12
TORSDOF 16
ENDMDL
MODEL 4
REMARK VINA RESULT:    -3.504     10.089     13.208
REMARK INTER + INTRA:          -8.943
REMARK INTER:                  -8.596
REMARK INTRA:                  -0.347
REMARK UNBOUND:                -2.161
REMARK SMILES CCCCCCCCCCCCCCCCCC(=O)[O-]
REMARK SMILES IDX 10 1 11 2 12 3 13 4 14 5 15 6 16 7 17 8 18 9 19 10 20 11
REMARK SMILES IDX 9 12 8 13 7 14 6 15 5 16 4 17 3 18 2 19 1 20
REMARK H PARENT
REMARK Flexibility Score: inf
ROOT
ATOM      1  C   UNL     1     -22.741  25.860  10.285  1.00  0.00     0.000 C 
ENDROOT
BRANCH   1   2
ATOM      2  C   UNL     1     -21.997  24.556  10.610  1.00  0.00     0.000 C 
BRANCH   2   3
ATOM      3  C   UNL     1     -22.267  24.059  12.038  1.00  0.00     0.000 C 
BRANCH   3   4
ATOM      4  C   UNL     1     -21.061  23.283  12.585  1.00  0.00     0.000 C 
BRANCH   4   5
ATOM      5  C   UNL     1     -21.171  22.990  14.092  1.00  0.00     0.000 C 
BRANCH   5   6
ATOM      6  C   UNL     1     -19.963  23.444  14.935  1.00  0.00     0.000 C 
BRANCH   6   7
ATOM      7  C   UNL     1     -20.279  23.780  16.406  1.00  0.00     0.006 C 
BRANCH   7   8
ATOM      8  C   UNL     1     -19.105  23.564  17.375  1.00  0.00     0.053 C 
BRANCH   8   9
ATOM      9  C   UNL     1     -19.482  23.877  18.790  1.00  0.00     0.041 C 
ATOM     10  O   UNL     1     -20.653  24.249  19.066  1.00  0.00    -0.550 OA
ATOM     11  O   UNL     1     -18.531  23.796  19.798  1.00  0.00    -0.550 OA
ENDBRANCH   8   9
ENDBRANCH   7   8
ENDBRANCH   6   7
ENDBRANCH   5   6
ENDBRANCH   4   5
ENDBRANCH   3   4
ENDBRANCH   2   3
ENDBRANCH   1   2
BRANCH   1  12
ATOM     12  C   UNL     1     -24.060  25.617   9.529  1.00  0.00     0.000 C 
BRANCH  12  13
ATOM     13  C   UNL     1     -23.844  25.506   8.005  1.00  0.00    -0.000 C 
BRANCH  13  14
ATOM     14  C   UNL     1     -23.823  26.866   7.288  1.00  0.00    -0.000 C 
BRANCH  14  15
ATOM     15  C   UNL     1     -24.078  28.046   8.239  1.00  0.00    -0.000 C 
BRANCH  15  16
ATOM     16  C   UNL     1     -24.099  29.403   7.503  1.00  0.00    -0.000 C 
BRANCH  16  17
ATOM     17  C   UNL     1     -23.485  30.559   8.314  1.00  0.00    -0.000 C 
BRANCH  17  18
ATOM     18  C   UNL     1     -22.430  31.392   7.563  1.00  0.00    -0.000 C 
BRANCH  18  19
ATOM     19  C   UNL     1     -21.282  31.923   8.439  1.00  0.00    -0.003 C 
ATOM     20  C   UNL     1     -19.905  31.454   7.968  1.00  0.00     0.004 C 
ENDBRANCH  18  19
ENDBRANCH  17  18
ENDBRANCH  16  17
ENDBRANCH  15  16
ENDBRANCH  14  15
ENDBRANCH  13  14
ENDBRANCH  12  13
ENDBRANCH   1  12
TORSDOF 16
ENDMDL
MODEL 5
REMARK VINA RESULT:    -3.492      2.611      5.316
REMARK INTER + INTRA:          -8.919
REMARK INTER:                  -7.149
REMARK INTRA:                  -1.770
REMARK UNBOUND:                -2.161
REMARK SMILES CCCCCCCCCCCCCCCCCC(=O)[O-]
REMARK SMILES IDX 10 1 11 2 12 3 13 4 14 5 15 6 16 7 17 8 18 9 19 10 20 11
REMARK SMILES IDX 9 12 8 13 7 14 6 15 5 16 4 17 3 18 2 19 1 20
REMARK H PARENT
REMARK Flexibility Score: inf
ROOT
ATOM      1  C   UNL     1     -22.688  34.515  20.000  1.00  0.00     0.000 C 
ENDROOT
BRANCH   1   2
ATOM      2  C   UNL     1     -22.173  35.709  20.816  1.00  0.00     0.000 C 
BRANCH   2   3
ATOM      3  C   UNL     1     -21.657  35.300  22.204  1.00  0.00     0.000 C 
BRANCH   3   4
ATOM      4  C   UNL     1     -21.892  36.420  23.227  1.00  0.00     0.000 C 
BRANCH   4   5
ATOM      5  C   UNL     1     -23.146  37.257  22.921  1.00  0.00     0.000 C 
BRANCH   5   6
ATOM      6  C   UNL     1     -22.912  38.779  22.845  1.00  0.00     0.000 C 
BRANCH   6   7
ATOM      7  C   UNL     1     -23.284  39.434  21.500  1.00  0.00     0.006 C 
BRANCH   7   8
ATOM      8  C   UNL     1     -22.127  39.520  20.492  1.00  0.00     0.053 C 
BRANCH   8   9
ATOM      9  C   UNL     1     -21.600  40.916  20.363  1.00  0.00     0.041 C 
ATOM     10  O   UNL     1     -20.368  41.116  20.199  1.00  0.00    -0.550 OA
ATOM     11  O   UNL     1     -22.464  41.999  20.462  1.00  0.00    -0.550 OA
ENDBRANCH   8   9
ENDBRANCH   7   8
ENDBRANCH   6   7
ENDBRANCH   5   6
ENDBRANCH   4   5
ENDBRANCH   3   4
ENDBRANCH   2   3
ENDBRANCH   1   2
BRANCH   1  12
ATOM     12  C   UNL     1     -23.806  33.741  20.723  1.00  0.00     0.000 C 
BRANCH  12  13
ATOM     13  C   UNL     1     -23.833  32.251  20.324  1.00  0.00    -0.000 C 
BRANCH  13  14
ATOM     14  C   UNL     1     -23.594  31.295  21.506  1.00  0.00    -0.000 C 
BRANCH  14  15
ATOM     15  C   UNL     1     -22.468  31.770  22.437  1.00  0.00    -0.000 C 
BRANCH  15  16
ATOM     16  C   UNL     1     -21.065  31.453  21.875  1.00  0.00    -0.000 C 
BRANCH  16  17
ATOM     17  C   UNL     1     -20.847  29.961  21.557  1.00  0.00    -0.000 C 
BRANCH  17  18
ATOM     18  C   UNL     1     -19.800  29.676  20.464  1.00  0.00    -0.000 C 
BRANCH  18  19
ATOM     19  C   UNL     1     -20.351  28.972  19.211  1.00  0.00    -0.003 C 
ATOM     20  C   UNL     1     -21.852  28.699  19.291  1.00  0.00     0.004 C 
ENDBRANCH  18  19
ENDBRANCH  17  18
ENDBRANCH  16  17
ENDBRANCH  15  16
ENDBRANCH  14  15
ENDBRANCH  13  14
ENDBRANCH  12  13
ENDBRANCH   1  12
TORSDOF 16
ENDMDL
MODEL 6
REMARK VINA RESULT:    -3.484      4.018      6.698
REMARK INTER + INTRA:          -8.905
REMARK INTER:                  -6.091
REMARK INTRA:                  -2.814
REMARK UNBOUND:                -2.161
REMARK SMILES CCCCCCCCCCCCCCCCCC(=O)[O-]
REMARK SMILES IDX 10 1 11 2 12 3 13 4 14 5 15 6 16 7 17 8 18 9 19 10 20 11
REMARK SMILES IDX 9 12 8 13 7 14 6 15 5 16 4 17 3 18 2 19 1 20
REMARK H PARENT
REMARK Flexibility Score: inf
ROOT
ATOM      1  C   UNL     1     -19.253  29.351  21.389  1.00  0.00     0.000 C 
ENDROOT
BRANCH   1   2
ATOM      2  C   UNL     1     -19.655  29.753  19.962  1.00  0.00     0.000 C 
BRANCH   2   3
ATOM      3  C   UNL     1     -20.410  28.638  19.223  1.00  0.00     0.000 C 
BRANCH   3   4
ATOM      4  C   UNL     1     -21.922  28.904  19.227  1.00  0.00     0.000 C 
BRANCH   4   5
ATOM      5  C   UNL     1     -22.741  27.697  19.717  1.00  0.00     0.000 C 
BRANCH   5   6
ATOM      6  C   UNL     1     -22.566  27.353  21.209  1.00  0.00     0.000 C 
BRANCH   6   7
ATOM      7  C   UNL     1     -21.961  25.964  21.496  1.00  0.00     0.006 C 
BRANCH   7   8
ATOM      8  C   UNL     1     -20.481  25.987  21.910  1.00  0.00     0.053 C 
BRANCH   8   9
ATOM      9  C   UNL     1     -19.586  25.498  20.813  1.00  0.00     0.041 C 
ATOM     10  O   UNL     1     -20.073  25.146  19.707  1.00  0.00    -0.550 OA
ATOM     11  O   UNL     1     -18.217  25.395  21.025  1.00  0.00    -0.550 OA
ENDBRANCH   8   9
ENDBRANCH   7   8
ENDBRANCH   6   7
ENDBRANCH   5   6
ENDBRANCH   4   5
ENDBRANCH   3   4
ENDBRANCH   2   3
ENDBRANCH   1   2
BRANCH   1  12
ATOM     12  C   UNL     1     -20.209  29.917  22.456  1.00  0.00     0.000 C 
BRANCH  12  13
ATOM     13  C   UNL     1     -20.881  31.228  21.997  1.00  0.00    -0.000 C 
BRANCH  13  14
ATOM     14  C   UNL     1     -22.240  31.488  22.670  1.00  0.00    -0.000 C 
BRANCH  14  15
ATOM     15  C   UNL     1     -23.430  31.202  21.740  1.00  0.00    -0.000 C 
BRANCH  15  16
ATOM     16  C   UNL     1     -23.440  32.120  20.498  1.00  0.00    -0.000 C 
BRANCH  16  17
ATOM     17  C   UNL     1     -23.700  33.602  20.824  1.00  0.00    -0.000 C 
BRANCH  17  18
ATOM     18  C   UNL     1     -22.721  34.594  20.169  1.00  0.00    -0.000 C 
BRANCH  18  19
ATOM     19  C   UNL     1     -21.510  34.975  21.039  1.00  0.00    -0.003 C 
ATOM     20  C   UNL     1     -21.874  35.186  22.509  1.00  0.00     0.004 C 
ENDBRANCH  18  19
ENDBRANCH  17  18
ENDBRANCH  16  17
ENDBRANCH  15  16
ENDBRANCH  14  15
ENDBRANCH  13  14
ENDBRANCH  12  13
ENDBRANCH   1  12
TORSDOF 16
ENDMDL
MODEL 7
REMARK VINA RESULT:    -3.472      1.914      3.484
REMARK INTER + INTRA:          -8.881
REMARK INTER:                  -5.736
REMARK INTRA:                  -3.145
REMARK UNBOUND:                -2.161
REMARK SMILES CCCCCCCCCCCCCCCCCC(=O)[O-]
REMARK SMILES IDX 10 1 11 2 12 3 13 4 14 5 15 6 16 7 17 8 18 9 19 10 20 11
REMARK SMILES IDX 9 12 8 13 7 14 6 15 5 16 4 17 3 18 2 19 1 20
REMARK H PARENT
REMARK Flexibility Score: inf
ROOT
ATOM      1  C   UNL     1     -19.847  29.810  20.351  1.00  0.00     0.000 C 
ENDROOT
BRANCH   1   2
ATOM      2  C   UNL     1     -18.864  29.113  21.303  1.00  0.00     0.000 C 
BRANCH   2   3
ATOM      3  C   UNL     1     -19.029  29.568  22.761  1.00  0.00     0.000 C 
BRANCH   3   4
ATOM      4  C   UNL     1     -19.638  30.975  22.830  1.00  0.00     0.000 C 
BRANCH   4   5
ATOM      5  C   UNL     1     -20.904  31.036  23.703  1.00  0.00     0.000 C 
BRANCH   5   6
ATOM      6  C   UNL     1     -22.128  31.692  23.032  1.00  0.00     0.000 C 
BRANCH   6   7
ATOM      7  C   UNL     1     -21.805  32.617  21.842  1.00  0.00     0.006 C 
BRANCH   7   8
ATOM      8  C   UNL     1     -22.979  32.848  20.877  1.00  0.00     0.053 C 
BRANCH   8   9
ATOM      9  C   UNL     1     -23.115  34.289  20.495  1.00  0.00     0.041 C 
ATOM     10  O   UNL     1     -24.125  34.948  20.857  1.00  0.00    -0.550 OA
ATOM     11  O   UNL     1     -22.145  34.895  19.707  1.00  0.00    -0.550 OA
ENDBRANCH   8   9
ENDBRANCH   7   8
ENDBRANCH   6   7
ENDBRANCH   5   6
ENDBRANCH   4   5
ENDBRANCH   3   4
ENDBRANCH   2   3
ENDBRANCH   1   2
BRANCH   1  12
ATOM     12  C   UNL     1     -20.373  28.870  19.249  1.00  0.00     0.000 C 
BRANCH  12  13
ATOM     13  C   UNL     1     -21.913  28.777  19.251  1.00  0.00    -0.000 C 
BRANCH  13  14
ATOM     14  C   UNL     1     -22.544  29.079  20.621  1.00  0.00    -0.000 C 
BRANCH  14  15
ATOM     15  C   UNL     1     -22.950  27.808  21.383  1.00  0.00    -0.000 C 
BRANCH  15  16
ATOM     16  C   UNL     1     -22.009  27.506  22.569  1.00  0.00    -0.000 C 
BRANCH  16  17
ATOM     17  C   UNL     1     -21.089  26.293  22.337  1.00  0.00    -0.000 C 
BRANCH  17  18
ATOM     18  C   UNL     1     -21.188  25.661  20.936  1.00  0.00    -0.000 C 
BRANCH  18  19
ATOM     19  C   UNL     1     -19.884  25.025  20.420  1.00  0.00    -0.003 C 
ATOM     20  C   UNL     1     -18.641  25.544  21.142  1.00  0.00     0.004 C 
ENDBRANCH  18  19
ENDBRANCH  17  18
ENDBRANCH  16  17
ENDBRANCH  15  16
ENDBRANCH  14  15
ENDBRANCH  13  14
ENDBRANCH  12  13
ENDBRANCH   1  12
TORSDOF 16
ENDMDL
MODEL 8
REMARK VINA RESULT:    -3.397      2.841      5.038
REMARK INTER + INTRA:          -8.735
REMARK INTER:                  -6.912
REMARK INTRA:                  -1.823
REMARK UNBOUND:                -2.161
REMARK SMILES CCCCCCCCCCCCCCCCCC(=O)[O-]
REMARK SMILES IDX 10 1 11 2 12 3 13 4 14 5 15 6 16 7 17 8 18 9 19 10 20 11
REMARK SMILES IDX 9 12 8 13 7 14 6 15 5 16 4 17 3 18 2 19 1 20
REMARK H PARENT
REMARK Flexibility Score: inf
ROOT
ATOM      1  C   UNL     1     -19.606  29.698  20.160  1.00  0.00     0.000 C 
ENDROOT
BRANCH   1   2
ATOM      2  C   UNL     1     -20.340  28.604  19.370  1.00  0.00     0.000 C 
BRANCH   2   3
ATOM      3  C   UNL     1     -21.686  28.220  20.002  1.00  0.00     0.000 C 
BRANCH   3   4
ATOM      4  C   UNL     1     -22.850  28.903  19.270  1.00  0.00     0.000 C 
BRANCH   4   5
ATOM      5  C   UNL     1     -23.461  30.066  20.071  1.00  0.00     0.000 C 
BRANCH   5   6
ATOM      6  C   UNL     1     -23.066  30.110  21.561  1.00  0.00     0.000 C 
BRANCH   6   7
ATOM      7  C   UNL     1     -22.956  31.522  22.169  1.00  0.00     0.006 C 
BRANCH   7   8
ATOM      8  C   UNL     1     -21.780  32.356  21.635  1.00  0.00     0.053 C 
BRANCH   8   9
ATOM      9  C   UNL     1     -22.230  33.679  21.098  1.00  0.00     0.041 C 
ATOM     10  O   UNL     1     -23.276  33.758  20.403  1.00  0.00    -0.550 OA
ATOM     11  O   UNL     1     -21.474  34.820  21.334  1.00  0.00    -0.550 OA
ENDBRANCH   8   9
ENDBRANCH   7   8
ENDBRANCH   6   7
ENDBRANCH   5   6
ENDBRANCH   4   5
ENDBRANCH   3   4
ENDBRANCH   2   3
ENDBRANCH   1   2
BRANCH   1  12
ATOM     12  C   UNL     1     -19.409  29.329  21.642  1.00  0.00     0.000 C 
BRANCH  12  13
ATOM     13  C   UNL     1     -18.100  28.545  21.876  1.00  0.00    -0.000 C 
BRANCH  13  14
ATOM     14  C   UNL     1     -18.322  27.152  22.490  1.00  0.00    -0.000 C 
BRANCH  14  15
ATOM     15  C   UNL     1     -18.640  26.080  21.437  1.00  0.00    -0.000 C 
BRANCH  15  16
ATOM     16  C   UNL     1     -17.446  25.136  21.178  1.00  0.00    -0.000 C 
BRANCH  16  17
ATOM     17  C   UNL     1     -17.860  23.716  20.747  1.00  0.00    -0.000 C 
BRANCH  17  18
ATOM     18  C   UNL     1     -17.260  23.242  19.409  1.00  0.00    -0.000 C 
BRANCH  18  19
ATOM     19  C   UNL     1     -18.240  23.251  18.223  1.00  0.00    -0.003 C 
ATOM     20  C   UNL     1     -19.654  23.674  18.620  1.00  0.00     0.004 C 
ENDBRANCH  18  19
ENDBRANCH  17  18
ENDBRANCH  16  17
ENDBRANCH  15  16
ENDBRANCH  14  15
ENDBRANCH  13  14
ENDBRANCH  12  13
ENDBRANCH   1  12
TORSDOF 16
ENDMDL
MODEL 9
REMARK VINA RESULT:    -3.378      4.149      7.345
REMARK INTER + INTRA:          -8.699
REMARK INTER:                  -6.138
REMARK INTRA:                  -2.562
REMARK UNBOUND:                -2.161
REMARK SMILES CCCCCCCCCCCCCCCCCC(=O)[O-]
REMARK SMILES IDX 10 1 11 2 12 3 13 4 14 5 15 6 16 7 17 8 18 9 19 10 20 11
REMARK SMILES IDX 9 12 8 13 7 14 6 15 5 16 4 17 3 18 2 19 1 20
REMARK H PARENT
REMARK Flexibility Score: inf
ROOT
ATOM      1  C   UNL     1     -20.574  28.882  19.231  1.00  0.00     0.000 C 
ENDROOT
BRANCH   1   2
ATOM      2  C   UNL     1     -22.021  28.961  19.739  1.00  0.00     0.000 C 
BRANCH   2   3
ATOM      3  C   UNL     1     -22.711  27.590  19.779  1.00  0.00     0.000 C 
BRANCH   3   4
ATOM      4  C   UNL     1     -22.692  27.008  21.199  1.00  0.00     0.000 C 
BRANCH   4   5
ATOM      5  C   UNL     1     -21.826  25.740  21.315  1.00  0.00     0.000 C 
BRANCH   5   6
ATOM      6  C   UNL     1     -21.119  25.312  20.013  1.00  0.00     0.000 C 
BRANCH   6   7
ATOM      7  C   UNL     1     -19.588  25.171  20.116  1.00  0.00     0.006 C 
BRANCH   7   8
ATOM      8  C   UNL     1     -19.024  25.356  21.534  1.00  0.00     0.053 C 
BRANCH   8   9
ATOM      9  C   UNL     1     -17.552  25.091  21.590  1.00  0.00     0.041 C 
ATOM     10  O   UNL     1     -16.984  24.468  20.655  1.00  0.00    -0.550 OA
ATOM     11  O   UNL     1     -16.812  25.498  22.693  1.00  0.00    -0.550 OA
ENDBRANCH   8   9
ENDBRANCH   7   8
ENDBRANCH   6   7
ENDBRANCH   5   6
ENDBRANCH   4   5
ENDBRANCH   3   4
ENDBRANCH   2   3
ENDBRANCH   1   2
BRANCH   1  12
ATOM     12  C   UNL     1     -19.583  29.631  20.141  1.00  0.00     0.000 C 
BRANCH  12  13
ATOM     13  C   UNL     1     -19.464  28.976  21.533  1.00  0.00    -0.000 C 
BRANCH  13  14
ATOM     14  C   UNL     1     -18.010  28.795  22.002  1.00  0.00    -0.000 C 
BRANCH  14  15
ATOM     15  C   UNL     1     -17.666  29.659  23.225  1.00  0.00    -0.000 C 
BRANCH  15  16
ATOM     16  C   UNL     1     -18.879  30.466  23.736  1.00  0.00    -0.000 C 
BRANCH  16  17
ATOM     17  C   UNL     1     -18.681  31.992  23.670  1.00  0.00    -0.000 C 
BRANCH  17  18
ATOM     18  C   UNL     1     -19.923  32.792  23.234  1.00  0.00    -0.000 C 
BRANCH  18  19
ATOM     19  C   UNL     1     -21.165  31.937  22.925  1.00  0.00    -0.003 C 
ATOM     20  C   UNL     1     -21.799  32.272  21.575  1.00  0.00     0.004 C 
ENDBRANCH  18  19
ENDBRANCH  17  18
ENDBRANCH  16  17
ENDBRANCH  15  16
ENDBRANCH  14  15
ENDBRANCH  13  14
ENDBRANCH  12  13
ENDBRANCH   1  12
TORSDOF 16
ENDMDL
