MODEL 1
REMARK VINA RESULT:    -5.448      0.000      0.000
REMARK INTER + INTRA:         -11.372
REMARK INTER:                  -9.907
REMARK INTRA:                  -1.466
REMARK UNBOUND:                -1.466
REMARK SMILES CCCCCCCCCCCCCCCC(=O)[O-]
REMARK SMILES IDX 9 1 10 2 11 3 12 4 13 5 14 6 15 7 16 8 17 9 18 10 8 11 7 12
REMARK SMILES IDX 6 13 5 14 4 15 3 16 2 17 1 18
REMARK H PARENT
REMARK Flexibility Score: inf
ROOT
ATOM      1  C   UNL     1       5.725 -34.619  20.453  1.00  0.00     0.000 C 
ENDROOT
BRANCH   1   2
ATOM      2  C   UNL     1       4.442 -33.979  20.996  1.00  0.00     0.000 C 
BRANCH   2   3
ATOM      3  C   UNL     1       4.618 -33.553  22.462  1.00  0.00     0.000 C 
BRANCH   3   4
ATOM      4  C   UNL     1       5.989 -33.945  23.041  1.00  0.00     0.000 C 
BRANCH   4   5
ATOM      5  C   UNL     1       5.938 -34.879  24.263  1.00  0.00     0.000 C 
BRANCH   5   6
ATOM      6  C   UNL     1       6.082 -36.364  23.889  1.00  0.00     0.006 C 
BRANCH   6   7
ATOM      7  C   UNL     1       4.781 -36.946  23.320  1.00  0.00     0.053 C 
BRANCH   7   8
ATOM      8  C   UNL     1       4.920 -38.400  22.984  1.00  0.00     0.041 C 
ATOM      9  O   UNL     1       4.701 -39.276  23.860  1.00  0.00    -0.550 OA
ATOM     10  O   UNL     1       5.320 -38.785  21.710  1.00  0.00    -0.550 OA
ENDBRANCH   7   8
ENDBRANCH   6   7
ENDBRANCH   5   6
ENDBRANCH   4   5
ENDBRANCH   3   4
ENDBRANCH   2   3
ENDBRANCH   1   2
BRANCH   1  11
ATOM     11  C   UNL     1       5.435 -35.990  19.827  1.00  0.00     0.000 C 
BRANCH  11  12
ATOM     12  C   UNL     1       3.924 -36.221  19.687  1.00  0.00    -0.000 C 
BRANCH  12  13
ATOM     13  C   UNL     1       3.570 -37.237  18.585  1.00  0.00    -0.000 C 
BRANCH  13  14
ATOM     14  C   UNL     1       2.070 -37.353  18.258  1.00  0.00    -0.000 C 
BRANCH  14  15
ATOM     15  C   UNL     1       1.732 -36.908  16.826  1.00  0.00    -0.000 C 
BRANCH  15  16
ATOM     16  C   UNL     1       2.871 -36.108  16.173  1.00  0.00    -0.000 C 
BRANCH  16  17
ATOM     17  C   UNL     1       3.033 -36.422  14.677  1.00  0.00    -0.003 C 
ATOM     18  C   UNL     1       3.731 -37.763  14.471  1.00  0.00     0.004 C 
ENDBRANCH  16  17
ENDBRANCH  15  16
ENDBRANCH  14  15
ENDBRANCH  13  14
ENDBRANCH  12  13
ENDBRANCH  11  12
ENDBRANCH   1  11
TORSDOF 14
ENDMDL
MODEL 2
REMARK VINA RESULT:    -5.235      2.209      3.414
REMARK INTER + INTRA:         -10.985
REMARK INTER:                  -9.544
REMARK INTRA:                  -1.441
REMARK UNBOUND:                -1.466
REMARK SMILES CCCCCCCCCCCCCCCC(=O)[O-]
REMARK SMILES IDX 9 1 10 2 11 3 12 4 13 5 14 6 15 7 16 8 17 9 18 10 8 11 7 12
REMARK SMILES IDX 6 13 5 14 4 15 3 16 2 17 1 18
REMARK H PARENT
REMARK Flexibility Score: inf
ROOT
ATOM      1  C   UNL     1       4.263 -38.448  22.108  1.00  0.00     0.000 C 
ENDROOT
BRANCH   1   2
ATOM      2  C   UNL     1       4.714 -38.591  23.567  1.00  0.00     0.000 C 
BRANCH   2   3
ATOM      3  C   UNL     1       4.657 -37.240  24.296  1.00  0.00     0.000 C 
BRANCH   3   4
ATOM      4  C   UNL     1       6.041 -36.587  24.459  1.00  0.00     0.000 C 
BRANCH   4   5
ATOM      5  C   UNL     1       6.103 -35.090  24.102  1.00  0.00     0.000 C 
BRANCH   5   6
ATOM      6  C   UNL     1       5.027 -34.672  23.086  1.00  0.00     0.006 C 
BRANCH   6   7
ATOM      7  C   UNL     1       5.621 -34.366  21.705  1.00  0.00     0.053 C 
BRANCH   7   8
ATOM      8  C   UNL     1       4.585 -33.853  20.752  1.00  0.00     0.041 C 
ATOM      9  O   UNL     1       4.740 -33.997  19.511  1.00  0.00    -0.550 OA
ATOM     10  O   UNL     1       3.462 -33.191  21.234  1.00  0.00    -0.550 OA
ENDBRANCH   7   8
ENDBRANCH   6   7
ENDBRANCH   5   6
ENDBRANCH   4   5
ENDBRANCH   3   4
ENDBRANCH   2   3
ENDBRANCH   1   2
BRANCH   1  11
ATOM     11  C   UNL     1       5.420 -37.973  21.219  1.00  0.00     0.000 C 
BRANCH  11  12
ATOM     12  C   UNL     1       4.918 -37.602  19.817  1.00  0.00    -0.000 C 
BRANCH  12  13
ATOM     13  C   UNL     1       3.431 -37.198  19.797  1.00  0.00    -0.000 C 
BRANCH  13  14
ATOM     14  C   UNL     1       2.680 -37.533  18.496  1.00  0.00    -0.000 C 
BRANCH  14  15
ATOM     15  C   UNL     1       3.123 -36.666  17.307  1.00  0.00    -0.000 C 
BRANCH  15  16
ATOM     16  C   UNL     1       2.191 -36.808  16.093  1.00  0.00    -0.000 C 
BRANCH  16  17
ATOM     17  C   UNL     1       2.872 -36.414  14.773  1.00  0.00    -0.003 C 
ATOM     18  C   UNL     1       3.834 -37.502  14.307  1.00  0.00     0.004 C 
ENDBRANCH  16  17
ENDBRANCH  15  16
ENDBRANCH  14  15
ENDBRANCH  13  14
ENDBRANCH  12  13
ENDBRANCH  11  12
ENDBRANCH   1  11
TORSDOF 14
ENDMDL
MODEL 3
REMARK VINA RESULT:    -5.201      2.971      6.786
REMARK INTER + INTRA:         -10.923
REMARK INTER:                  -9.440
REMARK INTRA:                  -1.483
REMARK UNBOUND:                -1.466
REMARK SMILES CCCCCCCCCCCCCCCC(=O)[O-]
REMARK SMILES IDX 9 1 10 2 11 3 12 4 13 5 14 6 15 7 16 8 17 9 18 10 8 11 7 12
REMARK SMILES IDX 6 13 5 14 4 15 3 16 2 17 1 18
REMARK H PARENT
REMARK Flexibility Score: inf
ROOT
ATOM      1  C   UNL     1       4.285 -34.297  21.007  1.00  0.00     0.000 C 
ENDROOT
BRANCH   1   2
ATOM      2  C   UNL     1       5.521 -35.062  20.518  1.00  0.00     0.000 C 
BRANCH   2   3
ATOM      3  C   UNL     1       5.139 -36.098  19.450  1.00  0.00     0.000 C 
BRANCH   3   4
ATOM      4  C   UNL     1       3.640 -36.446  19.458  1.00  0.00     0.000 C 
BRANCH   4   5
ATOM      5  C   UNL     1       3.196 -37.445  18.374  1.00  0.00     0.000 C 
BRANCH   5   6
ATOM      6  C   UNL     1       2.320 -36.799  17.286  1.00  0.00     0.006 C 
BRANCH   6   7
ATOM      7  C   UNL     1       3.154 -36.033  16.251  1.00  0.00     0.053 C 
BRANCH   7   8
ATOM      8  C   UNL     1       3.003 -36.609  14.876  1.00  0.00     0.041 C 
ATOM      9  O   UNL     1       1.955 -36.396  14.212  1.00  0.00    -0.550 OA
ATOM     10  O   UNL     1       4.008 -37.405  14.340  1.00  0.00    -0.550 OA
ENDBRANCH   7   8
ENDBRANCH   6   7
ENDBRANCH   5   6
ENDBRANCH   4   5
ENDBRANCH   3   4
ENDBRANCH   2   3
ENDBRANCH   1   2
BRANCH   1  11
ATOM     11  C   UNL     1       4.587 -33.537  22.305  1.00  0.00     0.000 C 
BRANCH  11  12
ATOM     12  C   UNL     1       5.974 -33.907  22.849  1.00  0.00    -0.000 C 
BRANCH  12  13
ATOM     13  C   UNL     1       5.910 -34.701  24.167  1.00  0.00    -0.000 C 
BRANCH  13  14
ATOM     14  C   UNL     1       6.074 -36.225  24.021  1.00  0.00    -0.000 C 
BRANCH  14  15
ATOM     15  C   UNL     1       4.774 -36.931  23.601  1.00  0.00    -0.000 C 
BRANCH  15  16
ATOM     16  C   UNL     1       4.757 -38.417  23.993  1.00  0.00    -0.000 C 
BRANCH  16  17
ATOM     17  C   UNL     1       4.551 -39.346  22.786  1.00  0.00    -0.003 C 
ATOM     18  C   UNL     1       5.475 -38.961  21.634  1.00  0.00     0.004 C 
ENDBRANCH  16  17
ENDBRANCH  15  16
ENDBRANCH  14  15
ENDBRANCH  13  14
ENDBRANCH  12  13
ENDBRANCH  11  12
ENDBRANCH   1  11
TORSDOF 14
ENDMDL
MODEL 4
REMARK VINA RESULT:    -5.163      0.767      1.500
REMARK INTER + INTRA:         -10.855
REMARK INTER:                  -9.699
REMARK INTRA:                  -1.155
REMARK UNBOUND:                -1.466
REMARK SMILES CCCCCCCCCCCCCCCC(=O)[O-]
REMARK SMILES IDX 9 1 10 2 11 3 12 4 13 5 14 6 15 7 16 8 17 9 18 10 8 11 7 12
REMARK SMILES IDX 6 13 5 14 4 15 3 16 2 17 1 18
REMARK H PARENT
REMARK Flexibility Score: inf
ROOT
ATOM      1  C   UNL     1       4.504 -34.101  21.060  1.00  0.00     0.000 C 
ENDROOT
BRANCH   1   2
ATOM      2  C   UNL     1       4.686 -33.628  22.508  1.00  0.00     0.000 C 
BRANCH   2   3
ATOM      3  C   UNL     1       6.068 -34.028  23.047  1.00  0.00     0.000 C 
BRANCH   3   4
ATOM      4  C   UNL     1       5.990 -34.971  24.260  1.00  0.00     0.000 C 
BRANCH   4   5
ATOM      5  C   UNL     1       6.024 -36.473  23.922  1.00  0.00     0.000 C 
BRANCH   5   6
ATOM      6  C   UNL     1       4.680 -37.176  24.181  1.00  0.00     0.006 C 
BRANCH   6   7
ATOM      7  C   UNL     1       4.770 -38.693  23.969  1.00  0.00     0.053 C 
BRANCH   7   8
ATOM      8  C   UNL     1       4.769 -39.055  22.515  1.00  0.00     0.041 C 
ATOM      9  O   UNL     1       5.603 -39.886  22.069  1.00  0.00    -0.550 OA
ATOM     10  O   UNL     1       3.865 -38.453  21.648  1.00  0.00    -0.550 OA
ENDBRANCH   7   8
ENDBRANCH   6   7
ENDBRANCH   5   6
ENDBRANCH   4   5
ENDBRANCH   3   4
ENDBRANCH   2   3
ENDBRANCH   1   2
BRANCH   1  11
ATOM     11  C   UNL     1       5.752 -34.841  20.562  1.00  0.00     0.000 C 
BRANCH  11  12
ATOM     12  C   UNL     1       5.365 -36.088  19.754  1.00  0.00    -0.000 C 
BRANCH  12  13
ATOM     13  C   UNL     1       3.941 -36.010  19.172  1.00  0.00    -0.000 C 
BRANCH  13  14
ATOM     14  C   UNL     1       3.484 -37.255  18.391  1.00  0.00    -0.000 C 
BRANCH  14  15
ATOM     15  C   UNL     1       2.002 -37.198  17.985  1.00  0.00    -0.000 C 
BRANCH  15  16
ATOM     16  C   UNL     1       1.801 -36.640  16.566  1.00  0.00    -0.000 C 
BRANCH  16  17
ATOM     17  C   UNL     1       3.128 -36.420  15.823  1.00  0.00    -0.003 C 
ATOM     18  C   UNL     1       2.941 -36.562  14.315  1.00  0.00     0.004 C 
ENDBRANCH  16  17
ENDBRANCH  15  16
ENDBRANCH  14  15
ENDBRANCH  13  14
ENDBRANCH  12  13
ENDBRANCH  11  12
ENDBRANCH   1  11
TORSDOF 14
ENDMDL
MODEL 5
REMARK VINA RESULT:    -5.152      2.931      6.268
REMARK INTER + INTRA:         -10.834
REMARK INTER:                  -8.911
REMARK INTRA:                  -1.923
REMARK UNBOUND:                -1.466
REMARK SMILES CCCCCCCCCCCCCCCC(=O)[O-]
REMARK SMILES IDX 9 1 10 2 11 3 12 4 13 5 14 6 15 7 16 8 17 9 18 10 8 11 7 12
REMARK SMILES IDX 6 13 5 14 4 15 3 16 2 17 1 18
REMARK H PARENT
REMARK Flexibility Score: inf
ROOT
ATOM      1  C   UNL     1       4.626 -37.588  23.443  1.00  0.00     0.000 C 
ENDROOT
BRANCH   1   2
ATOM      2  C   UNL     1       4.467 -38.411  22.158  1.00  0.00     0.000 C 
BRANCH   2   3
ATOM      3  C   UNL     1       5.316 -37.823  21.021  1.00  0.00     0.000 C 
BRANCH   3   4
ATOM      4  C   UNL     1       4.588 -37.826  19.665  1.00  0.00     0.000 C 
BRANCH   4   5
ATOM      5  C   UNL     1       3.126 -37.345  19.707  1.00  0.00     0.000 C 
BRANCH   5   6
ATOM      6  C   UNL     1       2.456 -37.341  18.323  1.00  0.00     0.006 C 
BRANCH   6   7
ATOM      7  C   UNL     1       3.391 -36.810  17.228  1.00  0.00     0.053 C 
BRANCH   7   8
ATOM      8  C   UNL     1       2.745 -36.848  15.876  1.00  0.00     0.041 C 
ATOM      9  O   UNL     1       3.354 -37.356  14.898  1.00  0.00    -0.550 OA
ATOM     10  O   UNL     1       1.484 -36.296  15.691  1.00  0.00    -0.550 OA
ENDBRANCH   7   8
ENDBRANCH   6   7
ENDBRANCH   5   6
ENDBRANCH   4   5
ENDBRANCH   3   4
ENDBRANCH   2   3
ENDBRANCH   1   2
BRANCH   1  11
ATOM     11  C   UNL     1       5.880 -36.707  23.381  1.00  0.00     0.000 C 
BRANCH  11  12
ATOM     12  C   UNL     1       6.044 -35.892  24.672  1.00  0.00    -0.000 C 
BRANCH  12  13
ATOM     13  C   UNL     1       6.125 -34.375  24.419  1.00  0.00    -0.000 C 
BRANCH  13  14
ATOM     14  C   UNL     1       6.064 -33.954  22.939  1.00  0.00    -0.000 C 
BRANCH  14  15
ATOM     15  C   UNL     1       4.654 -33.536  22.492  1.00  0.00    -0.000 C 
BRANCH  15  16
ATOM     16  C   UNL     1       4.302 -34.054  21.088  1.00  0.00    -0.000 C 
BRANCH  16  17
ATOM     17  C   UNL     1       5.547 -34.368  20.243  1.00  0.00    -0.003 C 
ATOM     18  C   UNL     1       5.266 -34.167  18.757  1.00  0.00     0.004 C 
ENDBRANCH  16  17
ENDBRANCH  15  16
ENDBRANCH  14  15
ENDBRANCH  13  14
ENDBRANCH  12  13
ENDBRANCH  11  12
ENDBRANCH   1  11
TORSDOF 14
ENDMDL
MODEL 6
REMARK VINA RESULT:    -5.012      2.949      6.535
REMARK INTER + INTRA:         -10.579
REMARK INTER:                  -8.714
REMARK INTRA:                  -1.865
REMARK UNBOUND:                -1.466
REMARK SMILES CCCCCCCCCCCCCCCC(=O)[O-]
REMARK SMILES IDX 9 1 10 2 11 3 12 4 13 5 14 6 15 7 16 8 17 9 18 10 8 11 7 12
REMARK SMILES IDX 6 13 5 14 4 15 3 16 2 17 1 18
REMARK H PARENT
REMARK Flexibility Score: inf
ROOT
ATOM      1  C   UNL     1       4.266 -38.602  22.165  1.00  0.00     0.000 C 
ENDROOT
BRANCH   1   2
ATOM      2  C   UNL     1       5.374 -38.556  21.105  1.00  0.00     0.000 C 
BRANCH   2   3
ATOM      3  C   UNL     1       4.941 -37.716  19.894  1.00  0.00     0.000 C 
BRANCH   3   4
ATOM      4  C   UNL     1       3.464 -37.290  19.955  1.00  0.00     0.000 C 
BRANCH   4   5
ATOM      5  C   UNL     1       2.665 -37.519  18.659  1.00  0.00     0.000 C 
BRANCH   5   6
ATOM      6  C   UNL     1       3.410 -37.038  17.402  1.00  0.00     0.006 C 
BRANCH   6   7
ATOM      7  C   UNL     1       2.473 -36.352  16.399  1.00  0.00     0.053 C 
BRANCH   7   8
ATOM      8  C   UNL     1       2.746 -36.786  14.992  1.00  0.00     0.041 C 
ATOM      9  O   UNL     1       1.936 -36.498  14.072  1.00  0.00    -0.550 OA
ATOM     10  O   UNL     1       3.881 -37.533  14.701  1.00  0.00    -0.550 OA
ENDBRANCH   7   8
ENDBRANCH   6   7
ENDBRANCH   5   6
ENDBRANCH   4   5
ENDBRANCH   3   4
ENDBRANCH   2   3
ENDBRANCH   1   2
BRANCH   1  11
ATOM     11  C   UNL     1       4.857 -38.564  23.580  1.00  0.00     0.000 C 
BRANCH  11  12
ATOM     12  C   UNL     1       4.645 -37.189  24.228  1.00  0.00    -0.000 C 
BRANCH  12  13
ATOM     13  C   UNL     1       5.924 -36.331  24.252  1.00  0.00    -0.000 C 
BRANCH  13  14
ATOM     14  C   UNL     1       5.743 -34.873  23.794  1.00  0.00    -0.000 C 
BRANCH  14  15
ATOM     15  C   UNL     1       4.829 -34.740  22.565  1.00  0.00    -0.000 C 
BRANCH  15  16
ATOM     16  C   UNL     1       5.611 -34.417  21.281  1.00  0.00    -0.000 C 
BRANCH  16  17
ATOM     17  C   UNL     1       4.697 -33.998  20.120  1.00  0.00    -0.003 C 
ATOM     18  C   UNL     1       5.369 -34.250  18.773  1.00  0.00     0.004 C 
ENDBRANCH  16  17
ENDBRANCH  15  16
ENDBRANCH  14  15
ENDBRANCH  13  14
ENDBRANCH  12  13
ENDBRANCH  11  12
ENDBRANCH   1  11
TORSDOF 14
ENDMDL
MODEL 7
REMARK VINA RESULT:    -4.946      2.954      6.465
REMARK INTER + INTRA:         -10.460
REMARK INTER:                  -8.924
REMARK INTRA:                  -1.536
REMARK UNBOUND:                -1.466
REMARK SMILES CCCCCCCCCCCCCCCC(=O)[O-]
REMARK SMILES IDX 9 1 10 2 11 3 12 4 13 5 14 6 15 7 16 8 17 9 18 10 8 11 7 12
REMARK SMILES IDX 6 13 5 14 4 15 3 16 2 17 1 18
REMARK H PARENT
REMARK Flexibility Score: inf
ROOT
ATOM      1  C   UNL     1       5.030 -33.342  22.656  1.00  0.00     0.000 C 
ENDROOT
BRANCH   1   2
ATOM      2  C   UNL     1       4.408 -34.513  21.886  1.00  0.00     0.000 C 
BRANCH   2   3
ATOM      3  C   UNL     1       4.199 -34.150  20.408  1.00  0.00     0.000 C 
BRANCH   3   4
ATOM      4  C   UNL     1       5.085 -34.974  19.456  1.00  0.00     0.000 C 
BRANCH   4   5
ATOM      5  C   UNL     1       4.394 -35.439  18.161  1.00  0.00     0.000 C 
BRANCH   5   6
ATOM      6  C   UNL     1       3.278 -36.466  18.413  1.00  0.00     0.006 C 
BRANCH   6   7
ATOM      7  C   UNL     1       3.142 -37.469  17.259  1.00  0.00     0.053 C 
BRANCH   7   8
ATOM      8  C   UNL     1       2.784 -36.793  15.971  1.00  0.00     0.041 C 
ATOM      9  O   UNL     1       3.437 -37.041  14.923  1.00  0.00    -0.550 OA
ATOM     10  O   UNL     1       1.749 -35.867  15.934  1.00  0.00    -0.550 OA
ENDBRANCH   7   8
ENDBRANCH   6   7
ENDBRANCH   5   6
ENDBRANCH   4   5
ENDBRANCH   3   4
ENDBRANCH   2   3
ENDBRANCH   1   2
BRANCH   1  11
ATOM     11  C   UNL     1       6.099 -33.836  23.639  1.00  0.00     0.000 C 
BRANCH  11  12
ATOM     12  C   UNL     1       6.125 -35.369  23.699  1.00  0.00    -0.000 C 
BRANCH  12  13
ATOM     13  C   UNL     1       6.062 -35.916  25.138  1.00  0.00    -0.000 C 
BRANCH  13  14
ATOM     14  C   UNL     1       4.946 -36.944  25.399  1.00  0.00    -0.000 C 
BRANCH  14  15
ATOM     15  C   UNL     1       4.398 -37.575  24.109  1.00  0.00    -0.000 C 
BRANCH  15  16
ATOM     16  C   UNL     1       4.851 -39.033  23.927  1.00  0.00    -0.000 C 
BRANCH  16  17
ATOM     17  C   UNL     1       5.057 -39.410  22.452  1.00  0.00    -0.003 C 
ATOM     18  C   UNL     1       4.871 -38.197  21.545  1.00  0.00     0.004 C 
ENDBRANCH  16  17
ENDBRANCH  15  16
ENDBRANCH  14  15
ENDBRANCH  13  14
ENDBRANCH  12  13
ENDBRANCH  11  12
ENDBRANCH   1  11
TORSDOF 14
ENDMDL
MODEL 8
REMARK VINA RESULT:    -4.152      1.707      2.325
REMARK INTER + INTRA:          -9.016
REMARK INTER:                  -8.029
REMARK INTRA:                  -0.988
REMARK UNBOUND:                -1.466
REMARK SMILES CCCCCCCCCCCCCCCC(=O)[O-]
REMARK SMILES IDX 9 1 10 2 11 3 12 4 13 5 14 6 15 7 16 8 17 9 18 10 8 11 7 12
REMARK SMILES IDX 6 13 5 14 4 15 3 16 2 17 1 18
REMARK H PARENT
REMARK Flexibility Score: inf
ROOT
ATOM      1  C   UNL     1       3.938 -34.068  20.996  1.00  0.00     0.000 C 
ENDROOT
BRANCH   1   2
ATOM      2  C   UNL     1       4.595 -34.393  22.343  1.00  0.00     0.000 C 
BRANCH   2   3
ATOM      3  C   UNL     1       5.999 -34.983  22.142  1.00  0.00     0.000 C 
BRANCH   3   4
ATOM      4  C   UNL     1       6.072 -36.485  22.470  1.00  0.00     0.000 C 
BRANCH   4   5
ATOM      5  C   UNL     1       4.841 -37.306  22.044  1.00  0.00     0.000 C 
BRANCH   5   6
ATOM      6  C   UNL     1       4.273 -38.170  23.183  1.00  0.00     0.006 C 
BRANCH   6   7
ATOM      7  C   UNL     1       5.153 -38.124  24.439  1.00  0.00     0.053 C 
BRANCH   7   8
ATOM      8  C   UNL     1       4.640 -37.137  25.444  1.00  0.00     0.041 C 
ATOM      9  O   UNL     1       5.164 -35.996  25.535  1.00  0.00    -0.550 OA
ATOM     10  O   UNL     1       3.603 -37.489  26.299  1.00  0.00    -0.550 OA
ENDBRANCH   7   8
ENDBRANCH   6   7
ENDBRANCH   5   6
ENDBRANCH   4   5
ENDBRANCH   3   4
ENDBRANCH   2   3
ENDBRANCH   1   2
BRANCH   1  11
ATOM     11  C   UNL     1       4.970 -34.087  19.861  1.00  0.00     0.000 C 
BRANCH  11  12
ATOM     12  C   UNL     1       4.460 -34.906  18.667  1.00  0.00    -0.000 C 
BRANCH  12  13
ATOM     13  C   UNL     1       4.045 -36.339  19.054  1.00  0.00    -0.000 C 
BRANCH  13  14
ATOM     14  C   UNL     1       2.785 -36.868  18.345  1.00  0.00    -0.000 C 
BRANCH  14  15
ATOM     15  C   UNL     1       3.043 -37.265  16.882  1.00  0.00    -0.000 C 
BRANCH  15  16
ATOM     16  C   UNL     1       2.184 -36.461  15.893  1.00  0.00    -0.000 C 
BRANCH  16  17
ATOM     17  C   UNL     1       2.812 -36.381  14.492  1.00  0.00    -0.003 C 
ATOM     18  C   UNL     1       3.771 -37.543  14.254  1.00  0.00     0.004 C 
ENDBRANCH  16  17
ENDBRANCH  15  16
ENDBRANCH  14  15
ENDBRANCH  13  14
ENDBRANCH  12  13
ENDBRANCH  11  12
ENDBRANCH   1  11
TORSDOF 14
ENDMDL
