MODEL 1
REMARK VINA RESULT:    45.476      0.000      0.000
REMARK INTER + INTRA:          71.043
REMARK INTER:                  66.744
REMARK INTRA:                   4.299
REMARK UNBOUND:                 4.299
REMARK SMILES O=c1c(O[C@H]2O[C@H](CO)[C@H](O)[C@@H](O)[C@H]2O)c(-c2ccc(O)c(O)c2)oc2cc(O)cc(O)c12
REMARK SMILES IDX 4 1 3 2 16 3 25 4 2 5 26 6 1 7 33 8 27 9 31 10 28 11 30 12
REMARK SMILES IDX 17 13 18 14 19 15 20 16 24 17 22 18 21 19 23 21 32 23 29 25
REMARK SMILES IDX 5 27 14 28 6 29 12 30 7 31 10 32 15 33 13 35 8 37 9 38 11 40
REMARK H PARENT 21 20 23 22 32 24 29 26 15 34 13 36 9 39 11 41
REMARK Flexibility Score: inf
ROOT
ATOM      1  O   UNL     1       4.230   7.878  14.254  1.00  0.00    -0.454 OA
ENDROOT
BRANCH   1   2
ATOM      2  C   UNL     1       5.551   8.141  14.638  1.00  0.00     0.214 A 
ATOM      3  C   UNL     1       5.902   8.389  15.979  1.00  0.00     0.180 A 
ATOM      4  O   UNL     1       7.182   8.514  16.311  1.00  0.00    -0.452 OA
ATOM      5  C   UNL     1       6.556   8.140  13.663  1.00  0.00     0.239 A 
ATOM      6  C   UNL     1       8.171   8.485  15.425  1.00  0.00     0.146 A 
ATOM      7  O   UNL     1       6.230   7.901  12.470  1.00  0.00    -0.285 OA
ATOM      8  C   UNL     1       7.904   8.348  14.038  1.00  0.00     0.111 A 
ATOM      9  C   UNL     1       9.485   8.596  15.888  1.00  0.00     0.094 A 
ATOM     10  C   UNL     1       9.001   8.383  13.126  1.00  0.00     0.134 A 
ATOM     11  C   UNL     1      10.553   8.570  14.995  1.00  0.00     0.123 A 
ATOM     12  C   UNL     1      10.309   8.461  13.623  1.00  0.00     0.093 A 
BRANCH   3  13
ATOM     13  C   UNL     1       4.890   8.527  17.046  1.00  0.00     0.025 A 
ATOM     14  C   UNL     1       3.546   8.797  16.738  1.00  0.00     0.016 A 
ATOM     15  C   UNL     1       2.602   8.938  17.757  1.00  0.00     0.051 A 
ATOM     16  C   UNL     1       2.987   8.828  19.097  1.00  0.00     0.157 A 
ATOM     17  C   UNL     1       5.280   8.442  18.392  1.00  0.00     0.062 A 
ATOM     18  C   UNL     1       4.333   8.582  19.418  1.00  0.00     0.158 A 
BRANCH  16  19
ATOM     19  O   UNL     1       2.022   8.969  20.093  1.00  0.00    -0.504 OA
ATOM     20  H   UNL     1       1.292   9.668  20.038  1.00  0.00     0.293 HD
ENDBRANCH  16  19
BRANCH  18  21
ATOM     21  O   UNL     1       4.725   8.478  20.752  1.00  0.00    -0.504 OA
ATOM     22  H   UNL     1       4.857   7.578  21.198  1.00  0.00     0.293 HD
ENDBRANCH  18  21
ENDBRANCH   3  13
BRANCH  10  23
ATOM     23  O   UNL     1       8.863   8.371  11.736  1.00  0.00    -0.507 OA
ATOM     24  H   UNL     1       9.507   7.928  11.098  1.00  0.00     0.293 HD
ENDBRANCH  10  23
BRANCH  11  25
ATOM     25  O   UNL     1      11.856   8.662  15.479  1.00  0.00    -0.508 OA
ATOM     26  H   UNL     1      12.140   9.412  16.098  1.00  0.00     0.293 HD
ENDBRANCH  11  25
ENDBRANCH   1   2
BRANCH   1  27
ATOM     27  C   UNL     1       3.815   7.782  12.886  1.00  0.00     0.339 C 
ATOM     28  C   UNL     1       2.369   7.258  12.782  1.00  0.00     0.214 C 
ATOM     29  O   UNL     1       4.709   6.969  12.142  1.00  0.00    -0.332 OA
ATOM     30  C   UNL     1       2.287   5.778  13.205  1.00  0.00     0.180 C 
ATOM     31  C   UNL     1       4.743   5.640  12.640  1.00  0.00     0.179 C 
ATOM     32  C   UNL     1       3.363   4.959  12.469  1.00  0.00     0.177 C 
BRANCH  28  33
ATOM     33  O   UNL     1       1.521   8.047  13.576  1.00  0.00    -0.384 OA
ATOM     34  H   UNL     1       1.041   8.660  12.960  1.00  0.00     0.211 HD
ENDBRANCH  28  33
BRANCH  30  35
ATOM     35  O   UNL     1       2.457   5.668  14.595  1.00  0.00    -0.387 OA
ATOM     36  H   UNL     1       1.560   5.785  15.005  1.00  0.00     0.211 HD
ENDBRANCH  30  35
BRANCH  31  37
ATOM     37  C   UNL     1       5.857   4.875  11.910  1.00  0.00     0.191 C 
BRANCH  37  38
ATOM     38  O   UNL     1       7.093   5.053  12.547  1.00  0.00    -0.394 OA
ATOM     39  H   UNL     1       7.581   5.749  12.035  1.00  0.00     0.210 HD
ENDBRANCH  37  38
ENDBRANCH  31  37
BRANCH  32  40
ATOM     40  O   UNL     1       3.024   4.875  11.106  1.00  0.00    -0.387 OA
ATOM     41  H   UNL     1       2.106   4.499  11.054  1.00  0.00     0.211 HD
ENDBRANCH  32  40
ENDBRANCH   1  27
TORSDOF 12
ENDMDL
MODEL 2
REMARK VINA RESULT:    46.066      1.244      2.092
REMARK INTER + INTRA:          71.909
REMARK INTER:                  69.162
REMARK INTRA:                   2.747
REMARK UNBOUND:                 4.299
REMARK SMILES O=c1c(O[C@H]2O[C@H](CO)[C@H](O)[C@@H](O)[C@H]2O)c(-c2ccc(O)c(O)c2)oc2cc(O)cc(O)c12
REMARK SMILES IDX 4 1 3 2 16 3 25 4 2 5 26 6 1 7 33 8 27 9 31 10 28 11 30 12
REMARK SMILES IDX 17 13 18 14 19 15 20 16 24 17 22 18 21 19 23 21 32 23 29 25
REMARK SMILES IDX 5 27 14 28 6 29 12 30 7 31 10 32 15 33 13 35 8 37 9 38 11 40
REMARK H PARENT 21 20 23 22 32 24 29 26 15 34 13 36 9 39 11 41
REMARK Flexibility Score: inf
ROOT
ATOM      1  O   UNL     1       4.825   6.452  14.538  1.00  0.00    -0.454 OA
ENDROOT
BRANCH   1   2
ATOM      2  C   UNL     1       6.030   7.138  14.741  1.00  0.00     0.214 A 
ATOM      3  C   UNL     1       6.232   7.975  15.855  1.00  0.00     0.180 A 
ATOM      4  O   UNL     1       7.429   8.509  16.067  1.00  0.00    -0.452 OA
ATOM      5  C   UNL     1       7.071   6.971  13.820  1.00  0.00     0.239 A 
ATOM      6  C   UNL     1       8.456   8.351  15.239  1.00  0.00     0.146 A 
ATOM      7  O   UNL     1       6.882   6.207  12.837  1.00  0.00    -0.285 OA
ATOM      8  C   UNL     1       8.314   7.611  14.036  1.00  0.00     0.111 A 
ATOM      9  C   UNL     1       9.681   8.931  15.576  1.00  0.00     0.094 A 
ATOM     10  C   UNL     1       9.434   7.524  13.155  1.00  0.00     0.134 A 
ATOM     11  C   UNL     1      10.784   8.791  14.738  1.00  0.00     0.123 A 
ATOM     12  C   UNL     1      10.658   8.088  13.536  1.00  0.00     0.093 A 
BRANCH   3  13
ATOM     13  C   UNL     1       5.147   8.299  16.805  1.00  0.00     0.025 A 
ATOM     14  C   UNL     1       3.854   8.603  16.349  1.00  0.00     0.016 A 
ATOM     15  C   UNL     1       2.841   8.918  17.257  1.00  0.00     0.051 A 
ATOM     16  C   UNL     1       3.109   8.952  18.630  1.00  0.00     0.157 A 
ATOM     17  C   UNL     1       5.420   8.357  18.180  1.00  0.00     0.062 A 
ATOM     18  C   UNL     1       4.405   8.673  19.095  1.00  0.00     0.158 A 
BRANCH  16  19
ATOM     19  O   UNL     1       2.076   9.266  19.513  1.00  0.00    -0.504 OA
ATOM     20  H   UNL     1       1.941   8.764  20.382  1.00  0.00     0.293 HD
ENDBRANCH  16  19
BRANCH  18  21
ATOM     21  O   UNL     1       4.680   8.712  20.461  1.00  0.00    -0.504 OA
ATOM     22  H   UNL     1       3.978   8.991  21.136  1.00  0.00     0.293 HD
ENDBRANCH  18  21
ENDBRANCH   3  13
BRANCH  10  23
ATOM     23  O   UNL     1       9.390   6.923  11.894  1.00  0.00    -0.507 OA
ATOM     24  H   UNL     1       9.937   7.217  11.098  1.00  0.00     0.293 HD
ENDBRANCH  10  23
BRANCH  11  25
ATOM     25  O   UNL     1      12.001   9.361  15.102  1.00  0.00    -0.508 OA
ATOM     26  H   UNL     1      12.703   9.600  14.411  1.00  0.00     0.293 HD
ENDBRANCH  11  25
ENDBRANCH   1   2
BRANCH   1  27
ATOM     27  C   UNL     1       3.632   7.087  14.061  1.00  0.00     0.339 C 
ATOM     28  C   UNL     1       2.979   6.261  12.936  1.00  0.00     0.214 C 
ATOM     29  O   UNL     1       3.901   8.413  13.633  1.00  0.00    -0.332 OA
ATOM     30  C   UNL     1       3.841   6.289  11.658  1.00  0.00     0.180 C 
ATOM     31  C   UNL     1       4.822   8.436  12.553  1.00  0.00     0.179 C 
ATOM     32  C   UNL     1       4.217   7.740  11.308  1.00  0.00     0.177 C 
BRANCH  28  33
ATOM     33  O   UNL     1       2.782   4.940  13.370  1.00  0.00    -0.384 OA
ATOM     34  H   UNL     1       3.391   4.799  14.141  1.00  0.00     0.211 HD
ENDBRANCH  28  33
BRANCH  30  35
ATOM     35  O   UNL     1       5.000   5.517  11.847  1.00  0.00    -0.387 OA
ATOM     36  H   UNL     1       4.753   4.771  12.455  1.00  0.00     0.211 HD
ENDBRANCH  30  35
BRANCH  31  37
ATOM     37  C   UNL     1       5.200   9.897  12.267  1.00  0.00     0.191 C 
BRANCH  37  38
ATOM     38  O   UNL     1       5.081  10.192  10.902  1.00  0.00    -0.394 OA
ATOM     39  H   UNL     1       4.838  11.152  10.838  1.00  0.00     0.210 HD
ENDBRANCH  37  38
ENDBRANCH  31  37
BRANCH  32  40
ATOM     40  O   UNL     1       3.064   8.421  10.877  1.00  0.00    -0.387 OA
ATOM     41  H   UNL     1       3.350   9.327  10.587  1.00  0.00     0.211 HD
ENDBRANCH  32  40
ENDBRANCH   1  27
TORSDOF 12
ENDMDL
MODEL 3
REMARK VINA RESULT:    46.809      1.492      5.644
REMARK INTER + INTRA:          73.000
REMARK INTER:                  62.400
REMARK INTRA:                  10.599
REMARK UNBOUND:                 4.299
REMARK SMILES O=c1c(O[C@H]2O[C@H](CO)[C@H](O)[C@@H](O)[C@H]2O)c(-c2ccc(O)c(O)c2)oc2cc(O)cc(O)c12
REMARK SMILES IDX 4 1 3 2 16 3 25 4 2 5 26 6 1 7 33 8 27 9 31 10 28 11 30 12
REMARK SMILES IDX 17 13 18 14 19 15 20 16 24 17 22 18 21 19 23 21 32 23 29 25
REMARK SMILES IDX 5 27 14 28 6 29 12 30 7 31 10 32 15 33 13 35 8 37 9 38 11 40
REMARK H PARENT 21 20 23 22 32 24 29 26 15 34 13 36 9 39 11 41
REMARK Flexibility Score: inf
ROOT
ATOM      1  O   UNL     1       4.185   7.876  14.063  1.00  0.00    -0.454 OA
ENDROOT
BRANCH   1   2
ATOM      2  C   UNL     1       4.372   8.099  15.433  1.00  0.00     0.214 A 
ATOM      3  C   UNL     1       5.610   8.518  15.958  1.00  0.00     0.180 A 
ATOM      4  O   UNL     1       5.705   8.831  17.245  1.00  0.00    -0.452 OA
ATOM      5  C   UNL     1       3.292   7.919  16.305  1.00  0.00     0.239 A 
ATOM      6  C   UNL     1       4.699   8.709  18.103  1.00  0.00     0.146 A 
ATOM      7  O   UNL     1       2.187   7.559  15.820  1.00  0.00    -0.285 OA
ATOM      8  C   UNL     1       3.445   8.192  17.685  1.00  0.00     0.111 A 
ATOM      9  C   UNL     1       4.901   9.097  19.429  1.00  0.00     0.094 A 
ATOM     10  C   UNL     1       2.417   8.026  18.662  1.00  0.00     0.134 A 
ATOM     11  C   UNL     1       3.873   8.986  20.363  1.00  0.00     0.123 A 
ATOM     12  C   UNL     1       2.639   8.456  19.976  1.00  0.00     0.093 A 
BRANCH   3  13
ATOM     13  C   UNL     1       6.827   8.614  15.126  1.00  0.00     0.025 A 
ATOM     14  C   UNL     1       6.740   8.758  13.731  1.00  0.00     0.016 A 
ATOM     15  C   UNL     1       7.898   8.836  12.956  1.00  0.00     0.051 A 
ATOM     16  C   UNL     1       9.158   8.755  13.557  1.00  0.00     0.157 A 
ATOM     17  C   UNL     1       8.092   8.509  15.726  1.00  0.00     0.062 A 
ATOM     18  C   UNL     1       9.257   8.587  14.948  1.00  0.00     0.158 A 
BRANCH  16  19
ATOM     19  O   UNL     1      10.297   8.839  12.757  1.00  0.00    -0.504 OA
ATOM     20  H   UNL     1      10.414   9.567  12.063  1.00  0.00     0.293 HD
ENDBRANCH  16  19
BRANCH  18  21
ATOM     21  O   UNL     1      10.510   8.499  15.554  1.00  0.00    -0.504 OA
ATOM     22  H   UNL     1      10.919   9.286  16.043  1.00  0.00     0.293 HD
ENDBRANCH  18  21
ENDBRANCH   3  13
BRANCH  10  23
ATOM     23  O   UNL     1       1.182   7.426  18.402  1.00  0.00    -0.507 OA
ATOM     24  H   UNL     1       1.058   6.468  18.111  1.00  0.00     0.293 HD
ENDBRANCH  10  23
BRANCH  11  25
ATOM     25  O   UNL     1       4.090   9.398  21.675  1.00  0.00    -0.508 OA
ATOM     26  H   UNL     1       4.852   9.025  22.229  1.00  0.00     0.293 HD
ENDBRANCH  11  25
ENDBRANCH   1   2
BRANCH   1  27
ATOM     27  C   UNL     1       5.269   7.781  13.129  1.00  0.00     0.339 C 
ATOM     28  C   UNL     1       4.778   7.257  11.765  1.00  0.00     0.214 C 
ATOM     29  O   UNL     1       6.312   6.969  13.645  1.00  0.00    -0.332 OA
ATOM     30  C   UNL     1       4.360   5.776  11.861  1.00  0.00     0.180 C 
ATOM     31  C   UNL     1       5.871   5.640  13.877  1.00  0.00     0.179 C 
ATOM     32  C   UNL     1       5.469   4.958  12.546  1.00  0.00     0.177 C 
BRANCH  28  33
ATOM     33  O   UNL     1       3.707   8.045  11.312  1.00  0.00    -0.384 OA
ATOM     34  H   UNL     1       4.044   8.977  11.251  1.00  0.00     0.211 HD
ENDBRANCH  28  33
BRANCH  30  35
ATOM     35  O   UNL     1       3.158   5.665  12.580  1.00  0.00    -0.387 OA
ATOM     36  H   UNL     1       3.052   6.507  13.095  1.00  0.00     0.211 HD
ENDBRANCH  30  35
BRANCH  31  37
ATOM     37  C   UNL     1       6.992   4.876  14.599  1.00  0.00     0.191 C 
BRANCH  37  38
ATOM     38  O   UNL     1       6.790   4.875  15.987  1.00  0.00    -0.394 OA
ATOM     39  H   UNL     1       7.259   4.076  16.342  1.00  0.00     0.210 HD
ENDBRANCH  37  38
ENDBRANCH  31  37
BRANCH  32  40
ATOM     40  O   UNL     1       6.578   4.876  11.683  1.00  0.00    -0.387 OA
ATOM     41  H   UNL     1       7.392   5.009  12.237  1.00  0.00     0.211 HD
ENDBRANCH  32  40
ENDBRANCH   1  27
TORSDOF 12
ENDMDL
MODEL 4
REMARK VINA RESULT:    48.375      1.427      2.597
REMARK INTER + INTRA:          75.298
REMARK INTER:                  75.277
REMARK INTRA:                   0.021
REMARK UNBOUND:                 4.299
REMARK SMILES O=c1c(O[C@H]2O[C@H](CO)[C@H](O)[C@@H](O)[C@H]2O)c(-c2ccc(O)c(O)c2)oc2cc(O)cc(O)c12
REMARK SMILES IDX 4 1 3 2 16 3 25 4 2 5 26 6 1 7 33 8 27 9 31 10 28 11 30 12
REMARK SMILES IDX 17 13 18 14 19 15 20 16 24 17 22 18 21 19 23 21 32 23 29 25
REMARK SMILES IDX 5 27 14 28 6 29 12 30 7 31 10 32 15 33 13 35 8 37 9 38 11 40
REMARK H PARENT 21 20 23 22 32 24 29 26 15 34 13 36 9 39 11 41
REMARK Flexibility Score: inf
ROOT
ATOM      1  O   UNL     1       6.412   7.602  13.584  1.00  0.00    -0.454 OA
ENDROOT
BRANCH   1   2
ATOM      2  C   UNL     1       7.510   7.996  14.360  1.00  0.00     0.214 A 
ATOM      3  C   UNL     1       7.373   8.359  15.714  1.00  0.00     0.180 A 
ATOM      4  O   UNL     1       8.457   8.608  16.440  1.00  0.00    -0.452 OA
ATOM      5  C   UNL     1       8.783   8.011  13.779  1.00  0.00     0.239 A 
ATOM      6  C   UNL     1       9.687   8.602  15.940  1.00  0.00     0.146 A 
ATOM      7  O   UNL     1       8.893   7.669  12.572  1.00  0.00    -0.285 OA
ATOM      8  C   UNL     1       9.912   8.352  14.561  1.00  0.00     0.111 A 
ATOM      9  C   UNL     1      10.759   8.848  16.802  1.00  0.00     0.094 A 
ATOM     10  C   UNL     1      11.249   8.416  14.067  1.00  0.00     0.134 A 
ATOM     11  C   UNL     1      12.066   8.851  16.321  1.00  0.00     0.123 A 
ATOM     12  C   UNL     1      12.306   8.632  14.961  1.00  0.00     0.093 A 
BRANCH   3  13
ATOM     13  C   UNL     1       6.053   8.485  16.367  1.00  0.00     0.025 A 
ATOM     14  C   UNL     1       4.873   8.547  15.607  1.00  0.00     0.016 A 
ATOM     15  C   UNL     1       3.634   8.678  16.237  1.00  0.00     0.051 A 
ATOM     16  C   UNL     1       3.556   8.767  17.630  1.00  0.00     0.157 A 
ATOM     17  C   UNL     1       5.975   8.598  17.764  1.00  0.00     0.062 A 
ATOM     18  C   UNL     1       4.731   8.730  18.399  1.00  0.00     0.158 A 
BRANCH  16  19
ATOM     19  O   UNL     1       2.304   8.893  18.231  1.00  0.00    -0.504 OA
ATOM     20  H   UNL     1       2.031   8.331  19.029  1.00  0.00     0.293 HD
ENDBRANCH  16  19
BRANCH  18  21
ATOM     21  O   UNL     1       4.660   8.824  19.788  1.00  0.00    -0.504 OA
ATOM     22  H   UNL     1       4.699   9.719  20.262  1.00  0.00     0.293 HD
ENDBRANCH  18  21
ENDBRANCH   3  13
BRANCH  10  23
ATOM     23  O   UNL     1      11.589   8.301  12.716  1.00  0.00    -0.507 OA
ATOM     24  H   UNL     1      11.290   7.552  12.110  1.00  0.00     0.293 HD
ENDBRANCH  10  23
BRANCH  11  25
ATOM     25  O   UNL     1      13.121   9.079  17.200  1.00  0.00    -0.508 OA
ATOM     26  H   UNL     1      13.068   8.804  18.174  1.00  0.00     0.293 HD
ENDBRANCH  11  25
ENDBRANCH   1   2
BRANCH   1  27
ATOM     27  C   UNL     1       6.440   6.473  12.701  1.00  0.00     0.339 C 
ATOM     28  C   UNL     1       6.152   6.901  11.249  1.00  0.00     0.214 C 
ATOM     29  O   UNL     1       5.532   5.472  13.131  1.00  0.00    -0.332 OA
ATOM     30  C   UNL     1       4.685   7.347  11.086  1.00  0.00     0.180 C 
ATOM     31  C   UNL     1       4.194   5.945  13.126  1.00  0.00     0.179 C 
ATOM     32  C   UNL     1       3.742   6.288  11.685  1.00  0.00     0.177 C 
BRANCH  28  33
ATOM     33  O   UNL     1       7.027   7.934  10.875  1.00  0.00    -0.384 OA
ATOM     34  H   UNL     1       7.935   7.660  11.169  1.00  0.00     0.211 HD
ENDBRANCH  28  33
BRANCH  30  35
ATOM     35  O   UNL     1       4.490   8.587  11.718  1.00  0.00    -0.387 OA
ATOM     36  H   UNL     1       4.689   8.453  12.682  1.00  0.00     0.211 HD
ENDBRANCH  30  35
BRANCH  31  37
ATOM     37  C   UNL     1       3.298   4.875  13.770  1.00  0.00     0.191 C 
BRANCH  37  38
ATOM     38  O   UNL     1       1.965   5.018  13.357  1.00  0.00    -0.394 OA
ATOM     39  H   UNL     1       1.550   5.685  13.963  1.00  0.00     0.210 HD
ENDBRANCH  37  38
ENDBRANCH  31  37
BRANCH  32  40
ATOM     40  O   UNL     1       3.771   5.137  10.875  1.00  0.00    -0.387 OA
ATOM     41  H   UNL     1       2.972   4.596  11.106  1.00  0.00     0.211 HD
ENDBRANCH  32  40
ENDBRANCH   1  27
TORSDOF 12
ENDMDL
