MODEL 1
REMARK VINA RESULT:    -8.607      0.000      0.000
REMARK INTER + INTRA:         -10.379
REMARK INTER:                 -10.117
REMARK INTRA:                  -0.263
REMARK UNBOUND:                -0.263
REMARK SMILES O=c1cc(-c2ccc(O)c(O)c2)oc2cc(O)cc(O)c12
REMARK SMILES IDX 4 1 3 2 2 3 1 4 21 5 19 6 18 7 16 8 15 9 14 10 13 11 5 12
REMARK SMILES IDX 6 13 7 14 8 15 12 16 10 17 9 18 11 20 20 22 17 24
REMARK H PARENT 9 19 11 21 20 23 17 25
REMARK Flexibility Score: inf
ROOT
ATOM      1  C   UNL     1     137.404 -17.933  79.623  1.00  0.00     0.138 A 
ATOM      2  C   UNL     1     138.530 -18.382  78.919  1.00  0.00     0.100 A 
ATOM      3  C   UNL     1     139.726 -17.667  79.003  1.00  0.00     0.197 A 
ATOM      4  O   UNL     1     140.702 -18.065  78.317  1.00  0.00    -0.289 OA
ATOM      5  C   UNL     1     139.803 -16.518  79.826  1.00  0.00     0.107 A 
ATOM      6  C   UNL     1     140.978 -15.730  80.017  1.00  0.00     0.134 A 
ATOM      7  C   UNL     1     140.907 -14.557  80.777  1.00  0.00     0.093 A 
ATOM      8  C   UNL     1     139.717 -14.173  81.402  1.00  0.00     0.123 A 
ATOM      9  C   UNL     1     138.578 -14.962  81.264  1.00  0.00     0.094 A 
ATOM     10  C   UNL     1     138.608 -16.119  80.483  1.00  0.00     0.146 A 
ATOM     11  O   UNL     1     137.493 -16.833  80.363  1.00  0.00    -0.456 OA
ENDROOT
BRANCH   1  12
ATOM     12  C   UNL     1     136.107 -18.655  79.572  1.00  0.00     0.021 A 
ATOM     13  C   UNL     1     135.777 -19.554  80.601  1.00  0.00     0.016 A 
ATOM     14  C   UNL     1     134.560 -20.241  80.581  1.00  0.00     0.051 A 
ATOM     15  C   UNL     1     133.649 -20.033  79.538  1.00  0.00     0.157 A 
ATOM     16  C   UNL     1     135.179 -18.441  78.533  1.00  0.00     0.062 A 
ATOM     17  C   UNL     1     133.958 -19.129  78.515  1.00  0.00     0.158 A 
BRANCH  15  18
ATOM     18  O   UNL     1     132.435 -20.718  79.515  1.00  0.00    -0.504 OA
ATOM     19  H   UNL     1     131.633 -20.359  79.013  1.00  0.00     0.293 HD
ENDBRANCH  15  18
BRANCH  17  20
ATOM     20  O   UNL     1     133.043 -18.917  77.485  1.00  0.00    -0.504 OA
ATOM     21  H   UNL     1     132.978 -19.547  76.695  1.00  0.00     0.293 HD
ENDBRANCH  17  20
ENDBRANCH   1  12
BRANCH   6  22
ATOM     22  O   UNL     1     142.236 -16.063  79.504  1.00  0.00    -0.507 OA
ATOM     23  H   UNL     1     143.084 -15.539  79.662  1.00  0.00     0.293 HD
ENDBRANCH   6  22
BRANCH   8  24
ATOM     24  O   UNL     1     139.661 -13.013  82.170  1.00  0.00    -0.508 OA
ATOM     25  H   UNL     1     138.853 -12.402  82.150  1.00  0.00     0.293 HD
ENDBRANCH   8  24
TORSDOF 5
ENDMDL
MODEL 2
REMARK VINA RESULT:    -7.813      3.061      6.302
REMARK INTER + INTRA:          -9.446
REMARK INTER:                  -9.180
REMARK INTRA:                  -0.266
REMARK UNBOUND:                -0.263
REMARK SMILES O=c1cc(-c2ccc(O)c(O)c2)oc2cc(O)cc(O)c12
REMARK SMILES IDX 4 1 3 2 2 3 1 4 21 5 19 6 18 7 16 8 15 9 14 10 13 11 5 12
REMARK SMILES IDX 6 13 7 14 8 15 12 16 10 17 9 18 11 20 20 22 17 24
REMARK H PARENT 9 19 11 21 20 23 17 25
REMARK Flexibility Score: inf
ROOT
ATOM      1  C   UNL     1     138.996 -19.865  78.770  1.00  0.00     0.138 A 
ATOM      2  C   UNL     1     137.774 -20.276  78.220  1.00  0.00     0.100 A 
ATOM      3  C   UNL     1     136.580 -19.766  78.732  1.00  0.00     0.197 A 
ATOM      4  O   UNL     1     135.499 -20.195  78.253  1.00  0.00    -0.289 OA
ATOM      5  C   UNL     1     136.613 -18.811  79.777  1.00  0.00     0.107 A 
ATOM      6  C   UNL     1     135.462 -18.196  80.354  1.00  0.00     0.134 A 
ATOM      7  C   UNL     1     135.614 -17.339  81.451  1.00  0.00     0.093 A 
ATOM      8  C   UNL     1     136.880 -17.029  81.954  1.00  0.00     0.123 A 
ATOM      9  C   UNL     1     138.013 -17.584  81.365  1.00  0.00     0.094 A 
ATOM     10  C   UNL     1     137.893 -18.470  80.292  1.00  0.00     0.146 A 
ATOM     11  O   UNL     1     138.999 -18.991  79.772  1.00  0.00    -0.456 OA
ENDROOT
BRANCH   1  12
ATOM     12  C   UNL     1     140.296 -20.373  78.263  1.00  0.00     0.021 A 
ATOM     13  C   UNL     1     140.775 -21.615  78.715  1.00  0.00     0.016 A 
ATOM     14  C   UNL     1     141.992 -22.120  78.248  1.00  0.00     0.051 A 
ATOM     15  C   UNL     1     142.745 -21.395  77.315  1.00  0.00     0.157 A 
ATOM     16  C   UNL     1     141.053 -19.657  77.315  1.00  0.00     0.062 A 
ATOM     17  C   UNL     1     142.273 -20.165  76.845  1.00  0.00     0.158 A 
BRANCH  15  18
ATOM     18  O   UNL     1     143.959 -21.896  76.849  1.00  0.00    -0.504 OA
ATOM     19  H   UNL     1     144.290 -21.697  75.912  1.00  0.00     0.293 HD
ENDBRANCH  15  18
BRANCH  17  20
ATOM     20  O   UNL     1     143.020 -19.453  75.908  1.00  0.00    -0.504 OA
ATOM     21  H   UNL     1     143.465 -19.914  75.123  1.00  0.00     0.293 HD
ENDBRANCH  17  20
ENDBRANCH   1  12
BRANCH   6  22
ATOM     22  O   UNL     1     134.158 -18.373  79.880  1.00  0.00    -0.507 OA
ATOM     23  H   UNL     1     133.322 -18.069  80.355  1.00  0.00     0.293 HD
ENDBRANCH   6  22
BRANCH   8  24
ATOM     24  O   UNL     1     137.022 -16.162  83.035  1.00  0.00    -0.508 OA
ATOM     25  H   UNL     1     137.930 -15.961  83.437  1.00  0.00     0.293 HD
ENDBRANCH   8  24
TORSDOF 5
ENDMDL
MODEL 3
REMARK VINA RESULT:    -7.554      3.511      6.205
REMARK INTER + INTRA:          -9.141
REMARK INTER:                  -8.841
REMARK INTRA:                  -0.300
REMARK UNBOUND:                -0.263
REMARK SMILES O=c1cc(-c2ccc(O)c(O)c2)oc2cc(O)cc(O)c12
REMARK SMILES IDX 4 1 3 2 2 3 1 4 21 5 19 6 18 7 16 8 15 9 14 10 13 11 5 12
REMARK SMILES IDX 6 13 7 14 8 15 12 16 10 17 9 18 11 20 20 22 17 24
REMARK H PARENT 9 19 11 21 20 23 17 25
REMARK Flexibility Score: inf
ROOT
ATOM      1  C   UNL     1     133.304 -18.761  77.251  1.00  0.00     0.138 A 
ATOM      2  C   UNL     1     132.849 -19.502  78.350  1.00  0.00     0.100 A 
ATOM      3  C   UNL     1     133.770 -20.011  79.268  1.00  0.00     0.197 A 
ATOM      4  O   UNL     1     133.335 -20.718  80.213  1.00  0.00    -0.289 OA
ATOM      5  C   UNL     1     135.150 -19.744  79.103  1.00  0.00     0.107 A 
ATOM      6  C   UNL     1     136.177 -20.181  79.993  1.00  0.00     0.134 A 
ATOM      7  C   UNL     1     137.518 -19.939  79.672  1.00  0.00     0.093 A 
ATOM      8  C   UNL     1     137.867 -19.226  78.522  1.00  0.00     0.123 A 
ATOM      9  C   UNL     1     136.871 -18.751  77.673  1.00  0.00     0.094 A 
ATOM     10  C   UNL     1     135.526 -19.006  77.948  1.00  0.00     0.146 A 
ATOM     11  O   UNL     1     134.608 -18.551  77.101  1.00  0.00    -0.456 OA
ENDROOT
BRANCH   1  12
ATOM     12  C   UNL     1     132.370 -18.194  76.246  1.00  0.00     0.021 A 
ATOM     13  C   UNL     1     131.129 -17.684  76.667  1.00  0.00     0.016 A 
ATOM     14  C   UNL     1     130.235 -17.138  75.743  1.00  0.00     0.051 A 
ATOM     15  C   UNL     1     130.569 -17.084  74.384  1.00  0.00     0.157 A 
ATOM     16  C   UNL     1     132.705 -18.123  74.879  1.00  0.00     0.062 A 
ATOM     17  C   UNL     1     131.807 -17.574  73.952  1.00  0.00     0.158 A 
BRANCH  15  18
ATOM     18  O   UNL     1     129.678 -16.542  73.459  1.00  0.00    -0.504 OA
ATOM     19  H   UNL     1     129.942 -16.391  72.493  1.00  0.00     0.293 HD
ENDBRANCH  15  18
BRANCH  17  20
ATOM     20  O   UNL     1     132.141 -17.507  72.600  1.00  0.00    -0.504 OA
ATOM     21  H   UNL     1     131.509 -17.838  71.881  1.00  0.00     0.293 HD
ENDBRANCH  17  20
ENDBRANCH   1  12
BRANCH   6  22
ATOM     22  O   UNL     1     135.936 -20.832  81.207  1.00  0.00    -0.507 OA
ATOM     23  H   UNL     1     136.422 -20.646  82.071  1.00  0.00     0.293 HD
ENDBRANCH   6  22
BRANCH   8  24
ATOM     24  O   UNL     1     139.204 -18.976  78.220  1.00  0.00    -0.508 OA
ATOM     25  H   UNL     1     139.917 -19.685  78.345  1.00  0.00     0.293 HD
ENDBRANCH   8  24
TORSDOF 5
ENDMDL
MODEL 4
REMARK VINA RESULT:    -7.408      4.306      8.476
REMARK INTER + INTRA:          -8.970
REMARK INTER:                  -8.664
REMARK INTRA:                  -0.306
REMARK UNBOUND:                -0.263
REMARK SMILES O=c1cc(-c2ccc(O)c(O)c2)oc2cc(O)cc(O)c12
REMARK SMILES IDX 4 1 3 2 2 3 1 4 21 5 19 6 18 7 16 8 15 9 14 10 13 11 5 12
REMARK SMILES IDX 6 13 7 14 8 15 12 16 10 17 9 18 11 20 20 22 17 24
REMARK H PARENT 9 19 11 21 20 23 17 25
REMARK Flexibility Score: inf
ROOT
ATOM      1  C   UNL     1     133.592 -18.831  76.817  1.00  0.00     0.138 A 
ATOM      2  C   UNL     1     132.395 -18.224  77.220  1.00  0.00     0.100 A 
ATOM      3  C   UNL     1     131.483 -17.790  76.256  1.00  0.00     0.197 A 
ATOM      4  O   UNL     1     130.444 -17.200  76.648  1.00  0.00    -0.289 OA
ATOM      5  C   UNL     1     131.756 -17.999  74.883  1.00  0.00     0.107 A 
ATOM      6  C   UNL     1     130.886 -17.631  73.814  1.00  0.00     0.134 A 
ATOM      7  C   UNL     1     131.309 -17.799  72.490  1.00  0.00     0.093 A 
ATOM      8  C   UNL     1     132.548 -18.376  72.196  1.00  0.00     0.123 A 
ATOM      9  C   UNL     1     133.383 -18.785  73.232  1.00  0.00     0.094 A 
ATOM     10  C   UNL     1     133.005 -18.599  74.563  1.00  0.00     0.146 A 
ATOM     11  O   UNL     1     133.840 -18.987  75.521  1.00  0.00    -0.456 OA
ENDROOT
BRANCH   1  12
ATOM     12  C   UNL     1     134.596 -19.314  77.799  1.00  0.00     0.021 A 
ATOM     13  C   UNL     1     134.168 -19.764  79.060  1.00  0.00     0.016 A 
ATOM     14  C   UNL     1     135.091 -20.231  80.000  1.00  0.00     0.051 A 
ATOM     15  C   UNL     1     136.457 -20.264  79.691  1.00  0.00     0.157 A 
ATOM     16  C   UNL     1     135.970 -19.363  77.491  1.00  0.00     0.062 A 
ATOM     17  C   UNL     1     136.896 -19.833  78.433  1.00  0.00     0.158 A 
BRANCH  15  18
ATOM     18  O   UNL     1     137.380 -20.727  80.626  1.00  0.00    -0.504 OA
ATOM     19  H   UNL     1     137.430 -20.338  81.560  1.00  0.00     0.293 HD
ENDBRANCH  15  18
BRANCH  17  20
ATOM     20  O   UNL     1     138.255 -19.879  78.126  1.00  0.00    -0.504 OA
ATOM     21  H   UNL     1     138.587 -20.241  77.240  1.00  0.00     0.293 HD
ENDBRANCH  17  20
ENDBRANCH   1  12
BRANCH   6  22
ATOM     22  O   UNL     1     129.597 -17.120  73.993  1.00  0.00    -0.507 OA
ATOM     23  H   UNL     1     129.380 -16.171  74.258  1.00  0.00     0.293 HD
ENDBRANCH   6  22
BRANCH   8  24
ATOM     24  O   UNL     1     132.953 -18.554  70.875  1.00  0.00    -0.508 OA
ATOM     25  H   UNL     1     132.441 -18.144  70.103  1.00  0.00     0.293 HD
ENDBRANCH   8  24
TORSDOF 5
ENDMDL
MODEL 5
REMARK VINA RESULT:    -7.304      3.465      6.725
REMARK INTER + INTRA:          -8.848
REMARK INTER:                  -8.562
REMARK INTRA:                  -0.286
REMARK UNBOUND:                -0.263
REMARK SMILES O=c1cc(-c2ccc(O)c(O)c2)oc2cc(O)cc(O)c12
REMARK SMILES IDX 4 1 3 2 2 3 1 4 21 5 19 6 18 7 16 8 15 9 14 10 13 11 5 12
REMARK SMILES IDX 6 13 7 14 8 15 12 16 10 17 9 18 11 20 20 22 17 24
REMARK H PARENT 9 19 11 21 20 23 17 25
REMARK Flexibility Score: inf
ROOT
ATOM      1  C   UNL     1     139.694 -20.028  78.699  1.00  0.00     0.138 A 
ATOM      2  C   UNL     1     138.876 -20.940  79.380  1.00  0.00     0.100 A 
ATOM      3  C   UNL     1     137.707 -20.490  79.998  1.00  0.00     0.197 A 
ATOM      4  O   UNL     1     137.024 -21.322  80.648  1.00  0.00    -0.289 OA
ATOM      5  C   UNL     1     137.338 -19.127  79.899  1.00  0.00     0.107 A 
ATOM      6  C   UNL     1     136.153 -18.561  80.458  1.00  0.00     0.134 A 
ATOM      7  C   UNL     1     135.944 -17.179  80.380  1.00  0.00     0.093 A 
ATOM      8  C   UNL     1     136.850 -16.349  79.714  1.00  0.00     0.123 A 
ATOM      9  C   UNL     1     137.984 -16.898  79.121  1.00  0.00     0.094 A 
ATOM     10  C   UNL     1     138.238 -18.268  79.211  1.00  0.00     0.146 A 
ATOM     11  O   UNL     1     139.342 -18.747  78.648  1.00  0.00    -0.456 OA
ENDROOT
BRANCH   1  12
ATOM     12  C   UNL     1     140.947 -20.451  78.022  1.00  0.00     0.021 A 
ATOM     13  C   UNL     1     141.368 -19.774  76.865  1.00  0.00     0.016 A 
ATOM     14  C   UNL     1     142.547 -20.146  76.213  1.00  0.00     0.051 A 
ATOM     15  C   UNL     1     143.328 -21.196  76.712  1.00  0.00     0.157 A 
ATOM     16  C   UNL     1     141.745 -21.497  78.526  1.00  0.00     0.062 A 
ATOM     17  C   UNL     1     142.928 -21.870  77.872  1.00  0.00     0.158 A 
BRANCH  15  18
ATOM     18  O   UNL     1     144.503 -21.571  76.063  1.00  0.00    -0.504 OA
ATOM     19  H   UNL     1     144.538 -22.380  75.456  1.00  0.00     0.293 HD
ENDBRANCH  15  18
BRANCH  17  20
ATOM     20  O   UNL     1     143.715 -22.906  78.372  1.00  0.00    -0.504 OA
ATOM     21  H   UNL     1     143.480 -23.878  78.208  1.00  0.00     0.293 HD
ENDBRANCH  17  20
ENDBRANCH   1  12
BRANCH   6  22
ATOM     22  O   UNL     1     135.145 -19.308  81.076  1.00  0.00    -0.507 OA
ATOM     23  H   UNL     1     134.446 -19.851  80.592  1.00  0.00     0.293 HD
ENDBRANCH   6  22
BRANCH   8  24
ATOM     24  O   UNL     1     136.625 -14.977  79.627  1.00  0.00    -0.508 OA
ATOM     25  H   UNL     1     135.987 -14.587  78.943  1.00  0.00     0.293 HD
ENDBRANCH   8  24
TORSDOF 5
ENDMDL
MODEL 6
REMARK VINA RESULT:    -7.302      1.948      6.702
REMARK INTER + INTRA:          -8.846
REMARK INTER:                  -8.528
REMARK INTRA:                  -0.318
REMARK UNBOUND:                -0.263
REMARK SMILES O=c1cc(-c2ccc(O)c(O)c2)oc2cc(O)cc(O)c12
REMARK SMILES IDX 4 1 3 2 2 3 1 4 21 5 19 6 18 7 16 8 15 9 14 10 13 11 5 12
REMARK SMILES IDX 6 13 7 14 8 15 12 16 10 17 9 18 11 20 20 22 17 24
REMARK H PARENT 9 19 11 21 20 23 17 25
REMARK Flexibility Score: inf
ROOT
ATOM      1  C   UNL     1     137.548 -17.060  80.410  1.00  0.00     0.138 A 
ATOM      2  C   UNL     1     138.365 -18.168  80.674  1.00  0.00     0.100 A 
ATOM      3  C   UNL     1     137.879 -19.456  80.438  1.00  0.00     0.197 A 
ATOM      4  O   UNL     1     138.615 -20.430  80.737  1.00  0.00    -0.289 OA
ATOM      5  C   UNL     1     136.581 -19.631  79.899  1.00  0.00     0.107 A 
ATOM      6  C   UNL     1     135.993 -20.893  79.585  1.00  0.00     0.134 A 
ATOM      7  C   UNL     1     134.664 -20.946  79.149  1.00  0.00     0.093 A 
ATOM      8  C   UNL     1     133.919 -19.779  78.961  1.00  0.00     0.123 A 
ATOM      9  C   UNL     1     134.500 -18.539  79.216  1.00  0.00     0.094 A 
ATOM     10  C   UNL     1     135.813 -18.454  79.685  1.00  0.00     0.146 A 
ATOM     11  O   UNL     1     136.321 -17.252  79.934  1.00  0.00    -0.456 OA
ENDROOT
BRANCH   1  12
ATOM     12  C   UNL     1     138.014 -15.669  80.640  1.00  0.00     0.021 A 
ATOM     13  C   UNL     1     139.288 -15.450  81.191  1.00  0.00     0.016 A 
ATOM     14  C   UNL     1     139.755 -14.152  81.410  1.00  0.00     0.051 A 
ATOM     15  C   UNL     1     138.958 -13.050  81.074  1.00  0.00     0.157 A 
ATOM     16  C   UNL     1     137.224 -14.556  80.292  1.00  0.00     0.062 A 
ATOM     17  C   UNL     1     137.693 -13.252  80.511  1.00  0.00     0.158 A 
BRANCH  15  18
ATOM     18  O   UNL     1     139.419 -11.753  81.294  1.00  0.00    -0.504 OA
ATOM     19  H   UNL     1     139.846 -11.483  82.172  1.00  0.00     0.293 HD
ENDBRANCH  15  18
BRANCH  17  20
ATOM     20  O   UNL     1     136.908 -12.153  80.167  1.00  0.00    -0.504 OA
ATOM     21  H   UNL     1     136.376 -12.129  79.305  1.00  0.00     0.293 HD
ENDBRANCH  17  20
ENDBRANCH   1  12
BRANCH   6  22
ATOM     22  O   UNL     1     136.672 -22.114  79.661  1.00  0.00    -0.507 OA
ATOM     23  H   UNL     1     137.198 -22.436  80.458  1.00  0.00     0.293 HD
ENDBRANCH   6  22
BRANCH   8  24
ATOM     24  O   UNL     1     132.602 -19.841  78.511  1.00  0.00    -0.508 OA
ATOM     25  H   UNL     1     131.847 -19.394  79.017  1.00  0.00     0.293 HD
ENDBRANCH   8  24
TORSDOF 5
ENDMDL
MODEL 7
REMARK VINA RESULT:    -7.203      2.868      6.753
REMARK INTER + INTRA:          -8.729
REMARK INTER:                  -8.456
REMARK INTRA:                  -0.273
REMARK UNBOUND:                -0.263
REMARK SMILES O=c1cc(-c2ccc(O)c(O)c2)oc2cc(O)cc(O)c12
REMARK SMILES IDX 4 1 3 2 2 3 1 4 21 5 19 6 18 7 16 8 15 9 14 10 13 11 5 12
REMARK SMILES IDX 6 13 7 14 8 15 12 16 10 17 9 18 11 20 20 22 17 24
REMARK H PARENT 9 19 11 21 20 23 17 25
REMARK Flexibility Score: inf
ROOT
ATOM      1  C   UNL     1     139.241 -19.415  78.868  1.00  0.00     0.138 A 
ATOM      2  C   UNL     1     139.339 -18.131  79.421  1.00  0.00     0.100 A 
ATOM      3  C   UNL     1     138.196 -17.506  79.921  1.00  0.00     0.197 A 
ATOM      4  O   UNL     1     138.306 -16.333  80.361  1.00  0.00    -0.289 OA
ATOM      5  C   UNL     1     136.955 -18.188  79.900  1.00  0.00     0.107 A 
ATOM      6  C   UNL     1     135.730 -17.665  80.413  1.00  0.00     0.134 A 
ATOM      7  C   UNL     1     134.545 -18.392  80.247  1.00  0.00     0.093 A 
ATOM      8  C   UNL     1     134.550 -19.649  79.637  1.00  0.00     0.123 A 
ATOM      9  C   UNL     1     135.748 -20.191  79.179  1.00  0.00     0.094 A 
ATOM     10  C   UNL     1     136.941 -19.475  79.299  1.00  0.00     0.146 A 
ATOM     11  O   UNL     1     138.059 -20.021  78.831  1.00  0.00    -0.456 OA
ENDROOT
BRANCH   1  12
ATOM     12  C   UNL     1     140.425 -20.128  78.324  1.00  0.00     0.021 A 
ATOM     13  C   UNL     1     140.702 -21.437  78.756  1.00  0.00     0.016 A 
ATOM     14  C   UNL     1     141.805 -22.133  78.254  1.00  0.00     0.051 A 
ATOM     15  C   UNL     1     142.644 -21.536  77.305  1.00  0.00     0.157 A 
ATOM     16  C   UNL     1     141.266 -19.539  77.359  1.00  0.00     0.062 A 
ATOM     17  C   UNL     1     142.372 -20.239  76.855  1.00  0.00     0.158 A 
BRANCH  15  18
ATOM     18  O   UNL     1     143.746 -22.227  76.804  1.00  0.00    -0.504 OA
ATOM     19  H   UNL     1     144.693 -21.909  76.973  1.00  0.00     0.293 HD
ENDBRANCH  15  18
BRANCH  17  20
ATOM     20  O   UNL     1     143.204 -19.653  75.902  1.00  0.00    -0.504 OA
ATOM     21  H   UNL     1     144.190 -19.503  76.078  1.00  0.00     0.293 HD
ENDBRANCH  17  20
ENDBRANCH   1  12
BRANCH   6  22
ATOM     22  O   UNL     1     135.624 -16.456  81.109  1.00  0.00    -0.507 OA
ATOM     23  H   UNL     1     134.865 -16.205  81.724  1.00  0.00     0.293 HD
ENDBRANCH   6  22
BRANCH   8  24
ATOM     24  O   UNL     1     133.369 -20.373  79.491  1.00  0.00    -0.508 OA
ATOM     25  H   UNL     1     132.989 -20.927  80.249  1.00  0.00     0.293 HD
ENDBRANCH   8  24
TORSDOF 5
ENDMDL
MODEL 8
REMARK VINA RESULT:    -6.938      1.393      7.209
REMARK INTER + INTRA:          -8.418
REMARK INTER:                  -8.153
REMARK INTRA:                  -0.264
REMARK UNBOUND:                -0.263
REMARK SMILES O=c1cc(-c2ccc(O)c(O)c2)oc2cc(O)cc(O)c12
REMARK SMILES IDX 4 1 3 2 2 3 1 4 21 5 19 6 18 7 16 8 15 9 14 10 13 11 5 12
REMARK SMILES IDX 6 13 7 14 8 15 12 16 10 17 9 18 11 20 20 22 17 24
REMARK H PARENT 9 19 11 21 20 23 17 25
REMARK Flexibility Score: inf
ROOT
ATOM      1  C   UNL     1     137.501 -17.773  79.654  1.00  0.00     0.138 A 
ATOM      2  C   UNL     1     136.984 -18.524  80.718  1.00  0.00     0.100 A 
ATOM      3  C   UNL     1     135.744 -19.151  80.582  1.00  0.00     0.197 A 
ATOM      4  O   UNL     1     135.282 -19.772  81.573  1.00  0.00    -0.289 OA
ATOM      5  C   UNL     1     135.036 -19.053  79.359  1.00  0.00     0.107 A 
ATOM      6  C   UNL     1     133.781 -19.677  79.093  1.00  0.00     0.134 A 
ATOM      7  C   UNL     1     133.129 -19.427  77.880  1.00  0.00     0.093 A 
ATOM      8  C   UNL     1     133.713 -18.621  76.899  1.00  0.00     0.123 A 
ATOM      9  C   UNL     1     134.962 -18.048  77.129  1.00  0.00     0.094 A 
ATOM     10  C   UNL     1     135.622 -18.250  78.343  1.00  0.00     0.146 A 
ATOM     11  O   UNL     1     136.802 -17.670  78.528  1.00  0.00    -0.456 OA
ENDROOT
BRANCH   1  12
ATOM     12  C   UNL     1     138.816 -17.088  79.743  1.00  0.00     0.021 A 
ATOM     13  C   UNL     1     139.899 -17.572  78.989  1.00  0.00     0.016 A 
ATOM     14  C   UNL     1     141.145 -16.942  79.048  1.00  0.00     0.051 A 
ATOM     15  C   UNL     1     141.326 -15.812  79.855  1.00  0.00     0.157 A 
ATOM     16  C   UNL     1     139.003 -15.942  80.542  1.00  0.00     0.062 A 
ATOM     17  C   UNL     1     140.253 -15.309  80.600  1.00  0.00     0.158 A 
BRANCH  15  18
ATOM     18  O   UNL     1     142.568 -15.182  79.917  1.00  0.00    -0.504 OA
ATOM     19  H   UNL     1     143.043 -15.032  80.799  1.00  0.00     0.293 HD
ENDBRANCH  15  18
BRANCH  17  20
ATOM     20  O   UNL     1     140.435 -14.177  81.392  1.00  0.00    -0.504 OA
ATOM     21  H   UNL     1     139.662 -13.743  81.883  1.00  0.00     0.293 HD
ENDBRANCH  17  20
ENDBRANCH   1  12
BRANCH   6  22
ATOM     22  O   UNL     1     133.144 -20.563  79.969  1.00  0.00    -0.507 OA
ATOM     23  H   UNL     1     133.531 -20.896  80.839  1.00  0.00     0.293 HD
ENDBRANCH   6  22
BRANCH   8  24
ATOM     24  O   UNL     1     133.064 -18.391  75.688  1.00  0.00    -0.508 OA
ATOM     25  H   UNL     1     132.100 -18.083  75.654  1.00  0.00     0.293 HD
ENDBRANCH   8  24
TORSDOF 5
ENDMDL
MODEL 9
REMARK VINA RESULT:    -6.766      4.276      8.003
REMARK INTER + INTRA:          -8.215
REMARK INTER:                  -7.933
REMARK INTRA:                  -0.282
REMARK UNBOUND:                -0.263
REMARK SMILES O=c1cc(-c2ccc(O)c(O)c2)oc2cc(O)cc(O)c12
REMARK SMILES IDX 4 1 3 2 2 3 1 4 21 5 19 6 18 7 16 8 15 9 14 10 13 11 5 12
REMARK SMILES IDX 6 13 7 14 8 15 12 16 10 17 9 18 11 20 20 22 17 24
REMARK H PARENT 9 19 11 21 20 23 17 25
REMARK Flexibility Score: inf
ROOT
ATOM      1  C   UNL     1     133.796 -18.879  76.498  1.00  0.00     0.138 A 
ATOM      2  C   UNL     1     134.139 -19.192  75.176  1.00  0.00     0.100 A 
ATOM      3  C   UNL     1     133.357 -18.707  74.126  1.00  0.00     0.197 A 
ATOM      4  O   UNL     1     133.658 -19.051  72.955  1.00  0.00    -0.289 OA
ATOM      5  C   UNL     1     132.246 -17.873  74.403  1.00  0.00     0.107 A 
ATOM      6  C   UNL     1     131.398 -17.292  73.413  1.00  0.00     0.134 A 
ATOM      7  C   UNL     1     130.270 -16.565  73.812  1.00  0.00     0.093 A 
ATOM      8  C   UNL     1     129.992 -16.348  75.164  1.00  0.00     0.123 A 
ATOM      9  C   UNL     1     130.842 -16.868  76.137  1.00  0.00     0.094 A 
ATOM     10  C   UNL     1     131.956 -17.628  75.772  1.00  0.00     0.146 A 
ATOM     11  O   UNL     1     132.730 -18.120  76.733  1.00  0.00    -0.456 OA
ENDROOT
BRANCH   1  12
ATOM     12  C   UNL     1     134.593 -19.366  77.653  1.00  0.00     0.021 A 
ATOM     13  C   UNL     1     133.932 -19.788  78.819  1.00  0.00     0.016 A 
ATOM     14  C   UNL     1     134.658 -20.258  79.917  1.00  0.00     0.051 A 
ATOM     15  C   UNL     1     136.057 -20.321  79.863  1.00  0.00     0.157 A 
ATOM     16  C   UNL     1     135.999 -19.445  77.602  1.00  0.00     0.062 A 
ATOM     17  C   UNL     1     136.727 -19.918  78.703  1.00  0.00     0.158 A 
BRANCH  15  18
ATOM     18  O   UNL     1     136.783 -20.787  80.957  1.00  0.00    -0.504 OA
ATOM     19  H   UNL     1     136.325 -21.113  81.799  1.00  0.00     0.293 HD
ENDBRANCH  15  18
BRANCH  17  20
ATOM     20  O   UNL     1     138.118 -19.994  78.650  1.00  0.00    -0.504 OA
ATOM     21  H   UNL     1     138.703 -19.466  79.287  1.00  0.00     0.293 HD
ENDBRANCH  17  20
ENDBRANCH   1  12
BRANCH   6  22
ATOM     22  O   UNL     1     131.626 -17.379  72.036  1.00  0.00    -0.507 OA
ATOM     23  H   UNL     1     132.115 -18.132  71.576  1.00  0.00     0.293 HD
ENDBRANCH   6  22
BRANCH   8  24
ATOM     24  O   UNL     1     128.876 -15.609  75.550  1.00  0.00    -0.508 OA
ATOM     25  H   UNL     1     128.690 -15.400  76.524  1.00  0.00     0.293 HD
ENDBRANCH   8  24
TORSDOF 5
ENDMDL
