MODEL 1
REMARK VINA RESULT:    -1.169      0.000      0.000
REMARK INTER + INTRA:          -3.730
REMARK INTER:                  -2.536
REMARK INTRA:                  -1.195
REMARK UNBOUND:                -1.195
REMARK SMILES CCCCCCCCCCCCCCCCCCCCCC(=O)[O-]
REMARK SMILES IDX 12 1 11 2 10 3 9 4 8 5 7 6 6 7 5 8 4 9 3 10 2 11 1 12 13 13
REMARK SMILES IDX 14 14 15 15 16 16 17 17 18 18 19 19 20 20 21 21 22 22 23 23
REMARK SMILES IDX 24 24
REMARK H PARENT
REMARK Flexibility Score: inf
ROOT
ATOM      1  C   UNL     1      31.339   0.261  -4.098  1.00  0.00     0.000 C 
ENDROOT
BRANCH   1   2
ATOM      2  C   UNL     1      31.112  -0.507  -2.782  1.00  0.00     0.000 C 
BRANCH   2   3
ATOM      3  C   UNL     1      32.004  -0.075  -1.604  1.00  0.00     0.000 C 
BRANCH   3   4
ATOM      4  C   UNL     1      31.296  -0.169  -0.244  1.00  0.00    -0.000 C 
BRANCH   4   5
ATOM      5  C   UNL     1      30.579   1.148   0.089  1.00  0.00    -0.000 C 
BRANCH   5   6
ATOM      6  C   UNL     1      29.488   0.981   1.159  1.00  0.00    -0.000 C 
BRANCH   6   7
ATOM      7  C   UNL     1      29.806   1.747   2.455  1.00  0.00    -0.000 C 
BRANCH   7   8
ATOM      8  C   UNL     1      30.669   3.006   2.213  1.00  0.00    -0.000 C 
BRANCH   8   9
ATOM      9  C   UNL     1      30.853   3.884   3.467  1.00  0.00    -0.000 C 
BRANCH   9  10
ATOM     10  C   UNL     1      31.153   5.363   3.172  1.00  0.00    -0.000 C 
BRANCH  10  11
ATOM     11  C   UNL     1      30.043   6.323   3.654  1.00  0.00    -0.003 C 
ATOM     12  C   UNL     1      30.183   6.695   5.128  1.00  0.00     0.004 C 
ENDBRANCH  10  11
ENDBRANCH   9  10
ENDBRANCH   8   9
ENDBRANCH   7   8
ENDBRANCH   6   7
ENDBRANCH   5   6
ENDBRANCH   4   5
ENDBRANCH   3   4
ENDBRANCH   2   3
ENDBRANCH   1   2
BRANCH   1  13
ATOM     13  C   UNL     1      31.392   1.785  -3.906  1.00  0.00     0.000 C 
BRANCH  13  14
ATOM     14  C   UNL     1      32.820   2.349  -4.013  1.00  0.00     0.000 C 
BRANCH  14  15
ATOM     15  C   UNL     1      32.923   3.848  -3.662  1.00  0.00     0.000 C 
BRANCH  15  16
ATOM     16  C   UNL     1      31.549   4.468  -3.355  1.00  0.00     0.000 C 
BRANCH  16  17
ATOM     17  C   UNL     1      31.615   5.560  -2.273  1.00  0.00     0.000 C 
BRANCH  17  18
ATOM     18  C   UNL     1      31.469   6.991  -2.833  1.00  0.00     0.000 C 
BRANCH  18  19
ATOM     19  C   UNL     1      30.289   7.744  -2.201  1.00  0.00     0.000 C 
BRANCH  19  20
ATOM     20  C   UNL     1      29.779   8.851  -3.136  1.00  0.00     0.006 C 
BRANCH  20  21
ATOM     21  C   UNL     1      29.304  10.089  -2.364  1.00  0.00     0.053 C 
BRANCH  21  22
ATOM     22  C   UNL     1      27.873   9.961  -1.936  1.00  0.00     0.041 C 
ATOM     23  O   UNL     1      27.570  10.007  -0.716  1.00  0.00    -0.550 OA
ATOM     24  O   UNL     1      26.880   9.749  -2.885  1.00  0.00    -0.550 OA
ENDBRANCH  21  22
ENDBRANCH  20  21
ENDBRANCH  19  20
ENDBRANCH  18  19
ENDBRANCH  17  18
ENDBRANCH  16  17
ENDBRANCH  15  16
ENDBRANCH  14  15
ENDBRANCH  13  14
ENDBRANCH   1  13
TORSDOF 20
ENDMDL
MODEL 2
REMARK VINA RESULT:    -0.904      4.605      8.979
REMARK INTER + INTRA:          -3.155
REMARK INTER:                  -2.335
REMARK INTRA:                  -0.820
REMARK UNBOUND:                -1.195
REMARK SMILES CCCCCCCCCCCCCCCCCCCCCC(=O)[O-]
REMARK SMILES IDX 12 1 11 2 10 3 9 4 8 5 7 6 6 7 5 8 4 9 3 10 2 11 1 12 13 13
REMARK SMILES IDX 14 14 15 15 16 16 17 17 18 18 19 19 20 20 21 21 22 22 23 23
REMARK SMILES IDX 24 24
REMARK H PARENT
REMARK Flexibility Score: inf
ROOT
ATOM      1  C   UNL     1      31.316  -0.613  -1.325  1.00  0.00     0.000 C 
ENDROOT
BRANCH   1   2
ATOM      2  C   UNL     1      31.290  -0.727  -2.861  1.00  0.00     0.000 C 
BRANCH   2   3
ATOM      3  C   UNL     1      32.532  -0.178  -3.586  1.00  0.00     0.000 C 
BRANCH   3   4
ATOM      4  C   UNL     1      33.854  -0.626  -2.943  1.00  0.00    -0.000 C 
BRANCH   4   5
ATOM      5  C   UNL     1      34.536  -1.707  -3.795  1.00  0.00    -0.000 C 
BRANCH   5   6
ATOM      6  C   UNL     1      36.035  -1.442  -4.008  1.00  0.00    -0.000 C 
BRANCH   6   7
ATOM      7  C   UNL     1      36.856  -2.739  -4.125  1.00  0.00    -0.000 C 
BRANCH   7   8
ATOM      8  C   UNL     1      35.978  -4.011  -4.100  1.00  0.00    -0.000 C 
BRANCH   8   9
ATOM      9  C   UNL     1      36.749  -5.291  -3.722  1.00  0.00    -0.000 C 
BRANCH   9  10
ATOM     10  C   UNL     1      36.530  -5.764  -2.275  1.00  0.00    -0.000 C 
BRANCH  10  11
ATOM     11  C   UNL     1      36.090  -7.241  -2.171  1.00  0.00    -0.003 C 
ATOM     12  C   UNL     1      35.280  -7.702  -3.381  1.00  0.00     0.004 C 
ENDBRANCH  10  11
ENDBRANCH   9  10
ENDBRANCH   8   9
ENDBRANCH   7   8
ENDBRANCH   6   7
ENDBRANCH   5   6
ENDBRANCH   4   5
ENDBRANCH   3   4
ENDBRANCH   2   3
ENDBRANCH   1   2
BRANCH   1  13
ATOM     13  C   UNL     1      30.389   0.489  -0.787  1.00  0.00     0.000 C 
BRANCH  13  14
ATOM     14  C   UNL     1      30.670   0.835   0.686  1.00  0.00     0.000 C 
BRANCH  14  15
ATOM     15  C   UNL     1      29.516   1.592   1.377  1.00  0.00     0.000 C 
BRANCH  15  16
ATOM     16  C   UNL     1      29.895   2.061   2.792  1.00  0.00     0.000 C 
BRANCH  16  17
ATOM     17  C   UNL     1      30.878   3.246   2.784  1.00  0.00     0.000 C 
BRANCH  17  18
ATOM     18  C   UNL     1      30.187   4.618   2.937  1.00  0.00     0.000 C 
BRANCH  18  19
ATOM     19  C   UNL     1      31.013   5.591   3.791  1.00  0.00     0.000 C 
BRANCH  19  20
ATOM     20  C   UNL     1      30.101   6.559   4.560  1.00  0.00     0.006 C 
BRANCH  20  21
ATOM     21  C   UNL     1      30.525   6.712   6.027  1.00  0.00     0.053 C 
BRANCH  21  22
ATOM     22  C   UNL     1      30.218   8.082   6.552  1.00  0.00     0.041 C 
ATOM     23  O   UNL     1      30.073   9.048   5.758  1.00  0.00    -0.550 OA
ATOM     24  O   UNL     1      30.134   8.299   7.922  1.00  0.00    -0.550 OA
ENDBRANCH  21  22
ENDBRANCH  20  21
ENDBRANCH  19  20
ENDBRANCH  18  19
ENDBRANCH  17  18
ENDBRANCH  16  17
ENDBRANCH  15  16
ENDBRANCH  14  15
ENDBRANCH  13  14
ENDBRANCH   1  13
TORSDOF 20
ENDMDL
MODEL 3
REMARK VINA RESULT:    -0.903      2.522      6.556
REMARK INTER + INTRA:          -3.154
REMARK INTER:                  -2.175
REMARK INTRA:                  -0.979
REMARK UNBOUND:                -1.195
REMARK SMILES CCCCCCCCCCCCCCCCCCCCCC(=O)[O-]
REMARK SMILES IDX 12 1 11 2 10 3 9 4 8 5 7 6 6 7 5 8 4 9 3 10 2 11 1 12 13 13
REMARK SMILES IDX 14 14 15 15 16 16 17 17 18 18 19 19 20 20 21 21 22 22 23 23
REMARK SMILES IDX 24 24
REMARK H PARENT
REMARK Flexibility Score: inf
ROOT
ATOM      1  C   UNL     1      31.485  -0.446  -1.773  1.00  0.00     0.000 C 
ENDROOT
BRANCH   1   2
ATOM      2  C   UNL     1      32.571   0.009  -2.766  1.00  0.00     0.000 C 
BRANCH   2   3
ATOM      3  C   UNL     1      32.081   0.905  -3.917  1.00  0.00     0.000 C 
BRANCH   3   4
ATOM      4  C   UNL     1      32.788   2.268  -3.964  1.00  0.00    -0.000 C 
BRANCH   4   5
ATOM      5  C   UNL     1      31.792   3.409  -3.707  1.00  0.00    -0.000 C 
BRANCH   5   6
ATOM      6  C   UNL     1      32.478   4.720  -3.292  1.00  0.00    -0.000 C 
BRANCH   6   7
ATOM      7  C   UNL     1      31.587   5.599  -2.397  1.00  0.00    -0.000 C 
BRANCH   7   8
ATOM      8  C   UNL     1      31.338   7.004  -2.992  1.00  0.00    -0.000 C 
BRANCH   8   9
ATOM      9  C   UNL     1      30.310   7.839  -2.203  1.00  0.00    -0.000 C 
BRANCH   9  10
ATOM     10  C   UNL     1      29.819   9.101  -2.933  1.00  0.00    -0.000 C 
BRANCH  10  11
ATOM     11  C   UNL     1      28.838   9.952  -2.096  1.00  0.00    -0.003 C 
ATOM     12  C   UNL     1      27.382   9.753  -2.511  1.00  0.00     0.004 C 
ENDBRANCH  10  11
ENDBRANCH   9  10
ENDBRANCH   8   9
ENDBRANCH   7   8
ENDBRANCH   6   7
ENDBRANCH   5   6
ENDBRANCH   4   5
ENDBRANCH   3   4
ENDBRANCH   2   3
ENDBRANCH   1   2
BRANCH   1  13
ATOM     13  C   UNL     1      30.750   0.728  -1.104  1.00  0.00     0.000 C 
BRANCH  13  14
ATOM     14  C   UNL     1      30.471   0.481   0.389  1.00  0.00     0.000 C 
BRANCH  14  15
ATOM     15  C   UNL     1      29.626   1.588   1.054  1.00  0.00     0.000 C 
BRANCH  15  16
ATOM     16  C   UNL     1      30.048   1.845   2.510  1.00  0.00     0.000 C 
BRANCH  16  17
ATOM     17  C   UNL     1      31.118   2.943   2.636  1.00  0.00     0.000 C 
BRANCH  17  18
ATOM     18  C   UNL     1      30.714   4.088   3.591  1.00  0.00     0.000 C 
BRANCH  18  19
ATOM     19  C   UNL     1      30.821   5.466   2.922  1.00  0.00     0.000 C 
BRANCH  19  20
ATOM     20  C   UNL     1      30.581   6.591   3.940  1.00  0.00     0.006 C 
BRANCH  20  21
ATOM     21  C   UNL     1      30.427   6.056   5.369  1.00  0.00     0.053 C 
BRANCH  21  22
ATOM     22  C   UNL     1      30.195   7.163   6.353  1.00  0.00     0.041 C 
ATOM     23  O   UNL     1      30.078   6.906   7.580  1.00  0.00    -0.550 OA
ATOM     24  O   UNL     1      30.066   8.473   5.909  1.00  0.00    -0.550 OA
ENDBRANCH  21  22
ENDBRANCH  20  21
ENDBRANCH  19  20
ENDBRANCH  18  19
ENDBRANCH  17  18
ENDBRANCH  16  17
ENDBRANCH  15  16
ENDBRANCH  14  15
ENDBRANCH  13  14
ENDBRANCH   1  13
TORSDOF 20
ENDMDL
MODEL 4
REMARK VINA RESULT:    -0.798      2.306      6.224
REMARK INTER + INTRA:          -2.926
REMARK INTER:                  -1.758
REMARK INTRA:                  -1.169
REMARK UNBOUND:                -1.195
REMARK SMILES CCCCCCCCCCCCCCCCCCCCCC(=O)[O-]
REMARK SMILES IDX 12 1 11 2 10 3 9 4 8 5 7 6 6 7 5 8 4 9 3 10 2 11 1 12 13 13
REMARK SMILES IDX 14 14 15 15 16 16 17 17 18 18 19 19 20 20 21 21 22 22 23 23
REMARK SMILES IDX 24 24
REMARK H PARENT
REMARK Flexibility Score: inf
ROOT
ATOM      1  C   UNL     1      31.611  -1.458  -2.982  1.00  0.00     0.000 C 
ENDROOT
BRANCH   1   2
ATOM      2  C   UNL     1      32.276  -0.655  -4.116  1.00  0.00     0.000 C 
BRANCH   2   3
ATOM      3  C   UNL     1      32.646   0.798  -3.769  1.00  0.00     0.000 C 
BRANCH   3   4
ATOM      4  C   UNL     1      31.541   1.804  -4.125  1.00  0.00    -0.000 C 
BRANCH   4   5
ATOM      5  C   UNL     1      31.752   3.131  -3.381  1.00  0.00    -0.000 C 
BRANCH   5   6
ATOM      6  C   UNL     1      32.896   3.972  -3.970  1.00  0.00    -0.000 C 
BRANCH   6   7
ATOM      7  C   UNL     1      32.985   5.375  -3.344  1.00  0.00    -0.000 C 
BRANCH   7   8
ATOM      8  C   UNL     1      31.658   5.829  -2.695  1.00  0.00    -0.000 C 
BRANCH   8   9
ATOM      9  C   UNL     1      31.225   7.253  -3.096  1.00  0.00    -0.000 C 
BRANCH   9  10
ATOM     10  C   UNL     1      30.107   7.850  -2.225  1.00  0.00    -0.000 C 
BRANCH  10  11
ATOM     11  C   UNL     1      29.277   8.933  -2.947  1.00  0.00    -0.003 C 
ATOM     12  C   UNL     1      28.501   9.825  -1.980  1.00  0.00     0.004 C 
ENDBRANCH  10  11
ENDBRANCH   9  10
ENDBRANCH   8   9
ENDBRANCH   7   8
ENDBRANCH   6   7
ENDBRANCH   5   6
ENDBRANCH   4   5
ENDBRANCH   3   4
ENDBRANCH   2   3
ENDBRANCH   1   2
BRANCH   1  13
ATOM     13  C   UNL     1      30.845  -0.572  -1.985  1.00  0.00     0.000 C 
BRANCH  13  14
ATOM     14  C   UNL     1      31.536  -0.487  -0.613  1.00  0.00     0.000 C 
BRANCH  14  15
ATOM     15  C   UNL     1      31.453   0.910   0.038  1.00  0.00     0.000 C 
BRANCH  15  16
ATOM     16  C   UNL     1      30.031   1.241   0.521  1.00  0.00     0.000 C 
BRANCH  16  17
ATOM     17  C   UNL     1      29.984   1.656   2.002  1.00  0.00     0.000 C 
BRANCH  17  18
ATOM     18  C   UNL     1      31.098   2.649   2.397  1.00  0.00     0.000 C 
BRANCH  18  19
ATOM     19  C   UNL     1      30.690   3.537   3.582  1.00  0.00     0.000 C 
BRANCH  19  20
ATOM     20  C   UNL     1      30.253   4.929   3.102  1.00  0.00     0.006 C 
BRANCH  20  21
ATOM     21  C   UNL     1      31.119   6.046   3.700  1.00  0.00     0.053 C 
BRANCH  21  22
ATOM     22  C   UNL     1      30.449   6.701   4.870  1.00  0.00     0.041 C 
ATOM     23  O   UNL     1      30.053   7.893   4.788  1.00  0.00    -0.550 OA
ATOM     24  O   UNL     1      30.299   6.006   6.064  1.00  0.00    -0.550 OA
ENDBRANCH  21  22
ENDBRANCH  20  21
ENDBRANCH  19  20
ENDBRANCH  18  19
ENDBRANCH  17  18
ENDBRANCH  16  17
ENDBRANCH  15  16
ENDBRANCH  14  15
ENDBRANCH  13  14
ENDBRANCH   1  13
TORSDOF 20
ENDMDL
MODEL 5
REMARK VINA RESULT:    -0.757      2.317      6.498
REMARK INTER + INTRA:          -2.837
REMARK INTER:                  -1.546
REMARK INTRA:                  -1.291
REMARK UNBOUND:                -1.195
REMARK SMILES CCCCCCCCCCCCCCCCCCCCCC(=O)[O-]
REMARK SMILES IDX 12 1 11 2 10 3 9 4 8 5 7 6 6 7 5 8 4 9 3 10 2 11 1 12 13 13
REMARK SMILES IDX 14 14 15 15 16 16 17 17 18 18 19 19 20 20 21 21 22 22 23 23
REMARK SMILES IDX 24 24
REMARK H PARENT
REMARK Flexibility Score: inf
ROOT
ATOM      1  C   UNL     1      32.755   1.057  -3.401  1.00  0.00     0.000 C 
ENDROOT
BRANCH   1   2
ATOM      2  C   UNL     1      32.382   2.432  -3.984  1.00  0.00     0.000 C 
BRANCH   2   3
ATOM      3  C   UNL     1      33.406   3.554  -3.737  1.00  0.00     0.000 C 
BRANCH   3   4
ATOM      4  C   UNL     1      32.780   4.957  -3.745  1.00  0.00    -0.000 C 
BRANCH   4   5
ATOM      5  C   UNL     1      31.531   5.002  -2.852  1.00  0.00    -0.000 C 
BRANCH   5   6
ATOM      6  C   UNL     1      31.511   6.217  -1.912  1.00  0.00    -0.000 C 
BRANCH   6   7
ATOM      7  C   UNL     1      30.337   7.171  -2.197  1.00  0.00    -0.000 C 
BRANCH   7   8
ATOM      8  C   UNL     1      30.678   8.243  -3.257  1.00  0.00    -0.000 C 
BRANCH   8   9
ATOM      9  C   UNL     1      29.753   9.476  -3.213  1.00  0.00    -0.000 C 
BRANCH   9  10
ATOM     10  C   UNL     1      29.236   9.836  -1.811  1.00  0.00    -0.000 C 
BRANCH  10  11
ATOM     11  C   UNL     1      27.714  10.096  -1.765  1.00  0.00    -0.003 C 
ATOM     12  C   UNL     1      27.056   9.991  -3.139  1.00  0.00     0.004 C 
ENDBRANCH  10  11
ENDBRANCH   9  10
ENDBRANCH   8   9
ENDBRANCH   7   8
ENDBRANCH   6   7
ENDBRANCH   5   6
ENDBRANCH   4   5
ENDBRANCH   3   4
ENDBRANCH   2   3
ENDBRANCH   1   2
BRANCH   1  13
ATOM     13  C   UNL     1      31.554   0.104  -3.287  1.00  0.00     0.000 C 
BRANCH  13  14
ATOM     14  C   UNL     1      30.461   0.635  -2.343  1.00  0.00     0.000 C 
BRANCH  14  15
ATOM     15  C   UNL     1      30.780   0.431  -0.847  1.00  0.00     0.000 C 
BRANCH  15  16
ATOM     16  C   UNL     1      29.662   0.966   0.063  1.00  0.00     0.000 C 
BRANCH  16  17
ATOM     17  C   UNL     1      30.063   0.994   1.548  1.00  0.00     0.000 C 
BRANCH  17  18
ATOM     18  C   UNL     1      29.898   2.382   2.204  1.00  0.00     0.000 C 
BRANCH  18  19
ATOM     19  C   UNL     1      31.248   3.016   2.568  1.00  0.00     0.000 C 
BRANCH  19  20
ATOM     20  C   UNL     1      31.100   3.984   3.751  1.00  0.00     0.006 C 
BRANCH  20  21
ATOM     21  C   UNL     1      30.176   5.164   3.422  1.00  0.00     0.053 C 
BRANCH  21  22
ATOM     22  C   UNL     1      30.786   6.474   3.821  1.00  0.00     0.041 C 
ATOM     23  O   UNL     1      30.124   7.301   4.501  1.00  0.00    -0.550 OA
ATOM     24  O   UNL     1      32.071   6.798   3.405  1.00  0.00    -0.550 OA
ENDBRANCH  21  22
ENDBRANCH  20  21
ENDBRANCH  19  20
ENDBRANCH  18  19
ENDBRANCH  17  18
ENDBRANCH  16  17
ENDBRANCH  15  16
ENDBRANCH  14  15
ENDBRANCH  13  14
ENDBRANCH   1  13
TORSDOF 20
ENDMDL
MODEL 6
REMARK VINA RESULT:    -0.631      1.244      2.937
REMARK INTER + INTRA:          -2.564
REMARK INTER:                  -1.540
REMARK INTRA:                  -1.024
REMARK UNBOUND:                -1.195
REMARK SMILES CCCCCCCCCCCCCCCCCCCCCC(=O)[O-]
REMARK SMILES IDX 12 1 11 2 10 3 9 4 8 5 7 6 6 7 5 8 4 9 3 10 2 11 1 12 13 13
REMARK SMILES IDX 14 14 15 15 16 16 17 17 18 18 19 19 20 20 21 21 22 22 23 23
REMARK SMILES IDX 24 24
REMARK H PARENT
REMARK Flexibility Score: inf
ROOT
ATOM      1  C   UNL     1      30.375   0.686  -1.304  1.00  0.00     0.000 C 
ENDROOT
BRANCH   1   2
ATOM      2  C   UNL     1      30.747   0.903   0.175  1.00  0.00     0.000 C 
BRANCH   2   3
ATOM      3  C   UNL     1      29.585   1.319   1.094  1.00  0.00     0.000 C 
BRANCH   3   4
ATOM      4  C   UNL     1      30.042   1.705   2.509  1.00  0.00    -0.000 C 
BRANCH   4   5
ATOM      5  C   UNL     1      31.018   2.891   2.462  1.00  0.00    -0.000 C 
BRANCH   5   6
ATOM      6  C   UNL     1      30.766   3.916   3.579  1.00  0.00    -0.000 C 
BRANCH   6   7
ATOM      7  C   UNL     1      30.363   5.299   3.037  1.00  0.00    -0.000 C 
BRANCH   7   8
ATOM      8  C   UNL     1      31.190   6.451   3.654  1.00  0.00    -0.000 C 
BRANCH   8   9
ATOM      9  C   UNL     1      30.460   7.204   4.783  1.00  0.00    -0.000 C 
BRANCH   9  10
ATOM     10  C   UNL     1      30.345   6.421   6.102  1.00  0.00    -0.000 C 
BRANCH  10  11
ATOM     11  C   UNL     1      29.809   7.270   7.276  1.00  0.00    -0.003 C 
ATOM     12  C   UNL     1      30.050   8.765   7.081  1.00  0.00     0.004 C 
ENDBRANCH  10  11
ENDBRANCH   9  10
ENDBRANCH   8   9
ENDBRANCH   7   8
ENDBRANCH   6   7
ENDBRANCH   5   6
ENDBRANCH   4   5
ENDBRANCH   3   4
ENDBRANCH   2   3
ENDBRANCH   1   2
BRANCH   1  13
ATOM     13  C   UNL     1      31.553   0.181  -2.154  1.00  0.00     0.000 C 
BRANCH  13  14
ATOM     14  C   UNL     1      31.504   0.697  -3.603  1.00  0.00     0.000 C 
BRANCH  14  15
ATOM     15  C   UNL     1      32.625   1.702  -3.942  1.00  0.00     0.000 C 
BRANCH  15  16
ATOM     16  C   UNL     1      32.101   3.145  -4.035  1.00  0.00     0.000 C 
BRANCH  16  17
ATOM     17  C   UNL     1      33.162   4.191  -3.652  1.00  0.00     0.000 C 
BRANCH  17  18
ATOM     18  C   UNL     1      32.576   5.596  -3.391  1.00  0.00     0.000 C 
BRANCH  18  19
ATOM     19  C   UNL     1      31.448   5.569  -2.349  1.00  0.00     0.000 C 
BRANCH  19  20
ATOM     20  C   UNL     1      31.044   6.994  -1.939  1.00  0.00     0.006 C 
BRANCH  20  21
ATOM     21  C   UNL     1      30.339   7.746  -3.076  1.00  0.00     0.053 C 
BRANCH  21  22
ATOM     22  C   UNL     1      29.445   8.829  -2.553  1.00  0.00     0.041 C 
ATOM     23  O   UNL     1      29.934   9.917  -2.153  1.00  0.00    -0.550 OA
ATOM     24  O   UNL     1      28.074   8.619  -2.469  1.00  0.00    -0.550 OA
ENDBRANCH  21  22
ENDBRANCH  20  21
ENDBRANCH  19  20
ENDBRANCH  18  19
ENDBRANCH  17  18
ENDBRANCH  16  17
ENDBRANCH  15  16
ENDBRANCH  14  15
ENDBRANCH  13  14
ENDBRANCH   1  13
TORSDOF 20
ENDMDL
MODEL 7
REMARK VINA RESULT:     0.215      7.624     11.366
REMARK INTER + INTRA:          -0.728
REMARK INTER:                   0.067
REMARK INTRA:                  -0.796
REMARK UNBOUND:                -1.195
REMARK SMILES CCCCCCCCCCCCCCCCCCCCCC(=O)[O-]
REMARK SMILES IDX 12 1 11 2 10 3 9 4 8 5 7 6 6 7 5 8 4 9 3 10 2 11 1 12 13 13
REMARK SMILES IDX 14 14 15 15 16 16 17 17 18 18 19 19 20 20 21 21 22 22 23 23
REMARK SMILES IDX 24 24
REMARK H PARENT
REMARK Flexibility Score: inf
ROOT
ATOM      1  C   UNL     1      31.395  -1.216  -2.957  1.00  0.00     0.000 C 
ENDROOT
BRANCH   1   2
ATOM      2  C   UNL     1      30.959   0.131  -2.351  1.00  0.00     0.000 C 
BRANCH   2   3
ATOM      3  C   UNL     1      31.007   1.334  -3.310  1.00  0.00     0.000 C 
BRANCH   3   4
ATOM      4  C   UNL     1      31.914   2.469  -2.811  1.00  0.00    -0.000 C 
BRANCH   4   5
ATOM      5  C   UNL     1      31.862   3.669  -3.768  1.00  0.00    -0.000 C 
BRANCH   5   6
ATOM      6  C   UNL     1      32.325   4.979  -3.110  1.00  0.00    -0.000 C 
BRANCH   6   7
ATOM      7  C   UNL     1      31.629   6.219  -3.700  1.00  0.00    -0.000 C 
BRANCH   7   8
ATOM      8  C   UNL     1      31.333   7.304  -2.639  1.00  0.00    -0.000 C 
BRANCH   8   9
ATOM      9  C   UNL     1      30.634   8.554  -3.207  1.00  0.00    -0.000 C 
BRANCH   9  10
ATOM     10  C   UNL     1      29.545   9.146  -2.297  1.00  0.00    -0.000 C 
BRANCH  10  11
ATOM     11  C   UNL     1      28.283   9.600  -3.062  1.00  0.00    -0.003 C 
ATOM     12  C   UNL     1      27.109   9.909  -2.135  1.00  0.00     0.004 C 
ENDBRANCH  10  11
ENDBRANCH   9  10
ENDBRANCH   8   9
ENDBRANCH   7   8
ENDBRANCH   6   7
ENDBRANCH   5   6
ENDBRANCH   4   5
ENDBRANCH   3   4
ENDBRANCH   2   3
ENDBRANCH   1   2
BRANCH   1  13
ATOM     13  C   UNL     1      32.413  -1.063  -4.099  1.00  0.00     0.000 C 
BRANCH  13  14
ATOM     14  C   UNL     1      33.871  -1.124  -3.608  1.00  0.00     0.000 C 
BRANCH  14  15
ATOM     15  C   UNL     1      34.618  -2.403  -4.042  1.00  0.00     0.000 C 
BRANCH  15  16
ATOM     16  C   UNL     1      36.139  -2.185  -4.125  1.00  0.00     0.000 C 
BRANCH  16  17
ATOM     17  C   UNL     1      36.943  -3.435  -3.725  1.00  0.00     0.000 C 
BRANCH  17  18
ATOM     18  C   UNL     1      36.218  -4.760  -4.043  1.00  0.00     0.000 C 
BRANCH  18  19
ATOM     19  C   UNL     1      36.709  -5.916  -3.159  1.00  0.00     0.000 C 
BRANCH  19  20
ATOM     20  C   UNL     1      35.711  -7.085  -3.179  1.00  0.00     0.006 C 
BRANCH  20  21
ATOM     21  C   UNL     1      35.667  -7.831  -1.839  1.00  0.00     0.053 C 
BRANCH  21  22
ATOM     22  C   UNL     1      35.893  -9.302  -2.017  1.00  0.00     0.041 C 
ATOM     23  O   UNL     1      35.370 -10.125  -1.220  1.00  0.00    -0.550 OA
ATOM     24  O   UNL     1      36.716  -9.761  -3.038  1.00  0.00    -0.550 OA
ENDBRANCH  21  22
ENDBRANCH  20  21
ENDBRANCH  19  20
ENDBRANCH  18  19
ENDBRANCH  17  18
ENDBRANCH  16  17
ENDBRANCH  15  16
ENDBRANCH  14  15
ENDBRANCH  13  14
ENDBRANCH   1  13
TORSDOF 20
ENDMDL
