MODEL 1
REMARK VINA RESULT:    -4.614      0.000      0.000
REMARK INTER + INTRA:          -5.429
REMARK INTER:                  -5.289
REMARK INTRA:                  -0.140
REMARK UNBOUND:                -0.140
REMARK SMILES O=C([O-])C=Cc1ccc(O)cc1
REMARK SMILES IDX 6 1 7 2 12 3 8 4 11 5 9 6 5 7 4 8 2 9 1 10 3 11 10 12
REMARK H PARENT 10 13
REMARK Flexibility Score: inf
ROOT
ATOM      1  C   UNL     1       9.772  14.299 -18.571  1.00  0.00    -0.025 A 
ATOM      2  C   UNL     1      10.113  15.659 -18.727  1.00  0.00     0.012 A 
ATOM      3  C   UNL     1      10.070  13.401 -19.611  1.00  0.00     0.012 A 
ATOM      4  C   UNL     1      10.757  16.096 -19.889  1.00  0.00     0.047 A 
ATOM      5  C   UNL     1      10.715  13.844 -20.769  1.00  0.00     0.047 A 
ATOM      6  C   UNL     1      11.062  15.190 -20.911  1.00  0.00     0.115 A 
ENDROOT
BRANCH   1   7
ATOM      7  C   UNL     1       9.078  13.783 -17.365  1.00  0.00     0.010 C 
ATOM      8  C   UNL     1       7.913  13.122 -17.401  1.00  0.00     0.025 C 
BRANCH   8   9
ATOM      9  C   UNL     1       7.256  12.637 -16.177  1.00  0.00     0.064 C 
ATOM     10  O   UNL     1       6.257  13.255 -15.722  1.00  0.00    -0.545 OA
ATOM     11  O   UNL     1       7.718  11.506 -15.514  1.00  0.00    -0.545 OA
ENDBRANCH   8   9
ENDBRANCH   1   7
BRANCH   6  12
ATOM     12  O   UNL     1      11.706  15.617 -22.071  1.00  0.00    -0.508 OA
ATOM     13  H   UNL     1      12.501  15.118 -22.449  1.00  0.00     0.293 HD
ENDBRANCH   6  12
TORSDOF 3
ENDMDL
MODEL 2
REMARK VINA RESULT:    -4.341      1.113      5.740
REMARK INTER + INTRA:          -5.115
REMARK INTER:                  -4.971
REMARK INTRA:                  -0.145
REMARK UNBOUND:                -0.140
REMARK SMILES O=C([O-])C=Cc1ccc(O)cc1
REMARK SMILES IDX 6 1 7 2 12 3 8 4 11 5 9 6 5 7 4 8 2 9 1 10 3 11 10 12
REMARK H PARENT 10 13
REMARK Flexibility Score: inf
ROOT
ATOM      1  C   UNL     1       8.714  14.303 -18.547  1.00  0.00    -0.025 A 
ATOM      2  C   UNL     1       7.356  14.629 -18.348  1.00  0.00     0.012 A 
ATOM      3  C   UNL     1       9.310  13.344 -17.710  1.00  0.00     0.012 A 
ATOM      4  C   UNL     1       6.614  13.989 -17.349  1.00  0.00     0.047 A 
ATOM      5  C   UNL     1       8.564  12.707 -16.714  1.00  0.00     0.047 A 
ATOM      6  C   UNL     1       7.216  13.025 -16.532  1.00  0.00     0.115 A 
ENDROOT
BRANCH   1   7
ATOM      7  C   UNL     1       9.550  14.958 -19.583  1.00  0.00     0.010 C 
ATOM      8  C   UNL     1      10.350  14.292 -20.426  1.00  0.00     0.025 C 
BRANCH   8   9
ATOM      9  C   UNL     1      11.169  14.985 -21.433  1.00  0.00     0.064 C 
ATOM     10  O   UNL     1      11.638  16.125 -21.173  1.00  0.00    -0.545 OA
ATOM     11  O   UNL     1      11.436  14.402 -22.666  1.00  0.00    -0.545 OA
ENDBRANCH   8   9
ENDBRANCH   1   7
BRANCH   6  12
ATOM     12  O   UNL     1       6.485  12.381 -15.536  1.00  0.00    -0.508 OA
ATOM     13  H   UNL     1       6.007  11.506 -15.711  1.00  0.00     0.293 HD
ENDBRANCH   6  12
TORSDOF 3
ENDMDL
MODEL 3
REMARK VINA RESULT:    -4.132      2.233      3.059
REMARK INTER + INTRA:          -4.876
REMARK INTER:                  -4.725
REMARK INTRA:                  -0.151
REMARK UNBOUND:                -0.140
REMARK SMILES O=C([O-])C=Cc1ccc(O)cc1
REMARK SMILES IDX 6 1 7 2 12 3 8 4 11 5 9 6 5 7 4 8 2 9 1 10 3 11 10 12
REMARK H PARENT 10 13
REMARK Flexibility Score: inf
ROOT
ATOM      1  C   UNL     1       8.063  13.222 -17.245  1.00  0.00    -0.025 A 
ATOM      2  C   UNL     1       6.996  13.989 -17.759  1.00  0.00     0.012 A 
ATOM      3  C   UNL     1       9.355  13.430 -17.756  1.00  0.00     0.012 A 
ATOM      4  C   UNL     1       7.231  14.955 -18.744  1.00  0.00     0.047 A 
ATOM      5  C   UNL     1       9.584  14.397 -18.740  1.00  0.00     0.047 A 
ATOM      6  C   UNL     1       8.525  15.162 -19.235  1.00  0.00     0.115 A 
ENDROOT
BRANCH   1   7
ATOM      7  C   UNL     1       7.869  12.178 -16.208  1.00  0.00     0.010 C 
ATOM      8  C   UNL     1       8.786  11.249 -15.906  1.00  0.00     0.025 C 
BRANCH   8   9
ATOM      9  C   UNL     1       8.546  10.226 -14.876  1.00  0.00     0.064 C 
ATOM     10  O   UNL     1       7.773   9.264 -15.126  1.00  0.00    -0.545 OA
ATOM     11  O   UNL     1       9.160  10.302 -13.631  1.00  0.00    -0.545 OA
ENDBRANCH   8   9
ENDBRANCH   1   7
BRANCH   6  12
ATOM     12  O   UNL     1       8.767  16.123 -20.214  1.00  0.00    -0.508 OA
ATOM     13  H   UNL     1       8.432  16.009 -21.163  1.00  0.00     0.293 HD
ENDBRANCH   6  12
TORSDOF 3
ENDMDL
MODEL 4
REMARK VINA RESULT:    -3.537      3.010      4.008
REMARK INTER + INTRA:          -4.194
REMARK INTER:                  -4.052
REMARK INTRA:                  -0.142
REMARK UNBOUND:                -0.140
REMARK SMILES O=C([O-])C=Cc1ccc(O)cc1
REMARK SMILES IDX 6 1 7 2 12 3 8 4 11 5 9 6 5 7 4 8 2 9 1 10 3 11 10 12
REMARK H PARENT 10 13
REMARK Flexibility Score: inf
ROOT
ATOM      1  C   UNL     1       8.288  12.883 -17.040  1.00  0.00    -0.025 A 
ATOM      2  C   UNL     1       6.879  12.921 -17.101  1.00  0.00     0.012 A 
ATOM      3  C   UNL     1       9.025  13.779 -17.833  1.00  0.00     0.012 A 
ATOM      4  C   UNL     1       6.232  13.852 -17.921  1.00  0.00     0.047 A 
ATOM      5  C   UNL     1       8.374  14.707 -18.650  1.00  0.00     0.047 A 
ATOM      6  C   UNL     1       6.978  14.749 -18.695  1.00  0.00     0.115 A 
ENDROOT
BRANCH   1   7
ATOM      7  C   UNL     1       9.024  11.910 -16.196  1.00  0.00     0.010 C 
ATOM      8  C   UNL     1       8.438  11.109 -15.297  1.00  0.00     0.025 C 
BRANCH   8   9
ATOM      9  C   UNL     1       9.210  10.165 -14.474  1.00  0.00     0.064 C 
ATOM     10  O   UNL     1      10.458  10.305 -14.375  1.00  0.00    -0.545 OA
ATOM     11  O   UNL     1       8.586   9.120 -13.802  1.00  0.00    -0.545 OA
ENDBRANCH   8   9
ENDBRANCH   1   7
BRANCH   6  12
ATOM     12  O   UNL     1       6.342  15.680 -19.513  1.00  0.00    -0.508 OA
ATOM     13  H   UNL     1       5.794  16.438 -19.126  1.00  0.00     0.293 HD
ENDBRANCH   6  12
TORSDOF 3
ENDMDL
MODEL 5
REMARK VINA RESULT:    -2.730      1.498      5.796
REMARK INTER + INTRA:          -3.269
REMARK INTER:                  -3.119
REMARK INTRA:                  -0.150
REMARK UNBOUND:                -0.140
REMARK SMILES O=C([O-])C=Cc1ccc(O)cc1
REMARK SMILES IDX 6 1 7 2 12 3 8 4 11 5 9 6 5 7 4 8 2 9 1 10 3 11 10 12
REMARK H PARENT 10 13
REMARK Flexibility Score: inf
ROOT
ATOM      1  C   UNL     1       8.704  13.144 -17.406  1.00  0.00    -0.025 A 
ATOM      2  C   UNL     1       7.445  13.159 -16.770  1.00  0.00     0.012 A 
ATOM      3  C   UNL     1       9.631  12.149 -17.051  1.00  0.00     0.012 A 
ATOM      4  C   UNL     1       7.121  12.184 -15.821  1.00  0.00     0.047 A 
ATOM      5  C   UNL     1       9.302  11.177 -16.102  1.00  0.00     0.047 A 
ATOM      6  C   UNL     1       8.048  11.189 -15.487  1.00  0.00     0.115 A 
ENDROOT
BRANCH   1   7
ATOM      7  C   UNL     1       9.103  14.160 -18.412  1.00  0.00     0.010 C 
ATOM      8  C   UNL     1       9.926  13.909 -19.438  1.00  0.00     0.025 C 
BRANCH   8   9
ATOM      9  C   UNL     1      10.302  14.951 -20.406  1.00  0.00     0.064 C 
ATOM     10  O   UNL     1       9.871  16.125 -20.254  1.00  0.00    -0.545 OA
ATOM     11  O   UNL     1      11.128  14.663 -21.487  1.00  0.00    -0.545 OA
ENDBRANCH   8   9
ENDBRANCH   1   7
BRANCH   6  12
ATOM     12  O   UNL     1       7.734  10.213 -14.543  1.00  0.00    -0.508 OA
ATOM     13  H   UNL     1       8.127  10.233 -13.610  1.00  0.00     0.293 HD
ENDBRANCH   6  12
TORSDOF 3
ENDMDL
MODEL 6
REMARK VINA RESULT:    -1.850      2.615      5.918
REMARK INTER + INTRA:          -2.261
REMARK INTER:                  -2.109
REMARK INTRA:                  -0.152
REMARK UNBOUND:                -0.140
REMARK SMILES O=C([O-])C=Cc1ccc(O)cc1
REMARK SMILES IDX 6 1 7 2 12 3 8 4 11 5 9 6 5 7 4 8 2 9 1 10 3 11 10 12
REMARK H PARENT 10 13
REMARK Flexibility Score: inf
ROOT
ATOM      1  C   UNL     1       8.335  12.292 -16.477  1.00  0.00    -0.025 A 
ATOM      2  C   UNL     1       7.404  11.805 -15.535  1.00  0.00     0.012 A 
ATOM      3  C   UNL     1       9.600  11.685 -16.556  1.00  0.00     0.012 A 
ATOM      4  C   UNL     1       7.732  10.722 -14.713  1.00  0.00     0.047 A 
ATOM      5  C   UNL     1       9.922  10.603 -15.733  1.00  0.00     0.047 A 
ATOM      6  C   UNL     1       8.990  10.117 -14.812  1.00  0.00     0.115 A 
ENDROOT
BRANCH   1   7
ATOM      7  C   UNL     1       8.043  13.445 -17.365  1.00  0.00     0.010 C 
ATOM      8  C   UNL     1       8.943  13.995 -18.192  1.00  0.00     0.025 C 
BRANCH   8   9
ATOM      9  C   UNL     1       8.612  15.144 -19.048  1.00  0.00     0.064 C 
ATOM     10  O   UNL     1       9.528  15.921 -19.426  1.00  0.00    -0.545 OA
ATOM     11  O   UNL     1       7.302  15.387 -19.449  1.00  0.00    -0.545 OA
ENDBRANCH   8   9
ENDBRANCH   1   7
BRANCH   6  12
ATOM     12  O   UNL     1       9.325   9.036 -13.998  1.00  0.00    -0.508 OA
ATOM     13  H   UNL     1       8.728   8.221 -13.929  1.00  0.00     0.293 HD
ENDBRANCH   6  12
TORSDOF 3
ENDMDL
