MODEL 1
REMARK VINA RESULT:    -6.214      0.000      0.000
REMARK INTER + INTRA:         -10.415
REMARK INTER:                  -9.120
REMARK INTRA:                  -1.296
REMARK UNBOUND:                -1.296
REMARK SMILES O=c1c(O[C@H]2O[C@@H](CO)[C@H](O)[C@H](O)[C@@H]2O)c(-c2ccc(O)c(O)c2)oc2cc(O)cc(O)c12
REMARK SMILES IDX 4 1 3 2 16 3 25 4 2 5 26 6 1 7 33 8 27 9 31 10 28 11 30 12
REMARK SMILES IDX 17 13 18 14 19 15 20 16 24 17 22 18 21 19 23 21 32 23 29 25
REMARK SMILES IDX 5 27 14 28 6 29 12 30 7 31 10 32 15 33 13 35 8 37 9 38 11 40
REMARK H PARENT 21 20 23 22 32 24 29 26 15 34 13 36 9 39 11 41
REMARK Flexibility Score: inf
ROOT
ATOM      1  O   UNL     1      17.632  -0.444 -11.739  1.00  0.00    -0.454 OA
ENDROOT
BRANCH   1   2
ATOM      2  C   UNL     1      17.837  -0.549 -13.116  1.00  0.00     0.214 A 
ATOM      3  C   UNL     1      17.035  -1.387 -13.923  1.00  0.00     0.180 A 
ATOM      4  O   UNL     1      17.302  -1.489 -15.222  1.00  0.00    -0.452 OA
ATOM      5  C   UNL     1      18.912   0.132 -13.700  1.00  0.00     0.239 A 
ATOM      6  C   UNL     1      18.286  -0.831 -15.823  1.00  0.00     0.146 A 
ATOM      7  O   UNL     1      19.697   0.767 -12.944  1.00  0.00    -0.285 OA
ATOM      8  C   UNL     1      19.120   0.057 -15.096  1.00  0.00     0.111 A 
ATOM      9  C   UNL     1      18.494  -1.047 -17.187  1.00  0.00     0.094 A 
ATOM     10  C   UNL     1      20.108   0.804 -15.808  1.00  0.00     0.134 A 
ATOM     11  C   UNL     1      19.497  -0.353 -17.866  1.00  0.00     0.123 A 
ATOM     12  C   UNL     1      20.303   0.556 -17.174  1.00  0.00     0.093 A 
BRANCH   3  13
ATOM     13  C   UNL     1      15.892  -2.181 -13.387  1.00  0.00     0.025 A 
ATOM     14  C   UNL     1      15.955  -3.576 -13.233  1.00  0.00     0.016 A 
ATOM     15  C   UNL     1      14.890  -4.273 -12.672  1.00  0.00     0.051 A 
ATOM     16  C   UNL     1      13.708  -3.609 -12.330  1.00  0.00     0.157 A 
ATOM     17  C   UNL     1      14.687  -1.523 -13.082  1.00  0.00     0.062 A 
ATOM     18  C   UNL     1      13.585  -2.223 -12.576  1.00  0.00     0.158 A 
BRANCH  16  19
ATOM     19  O   UNL     1      12.686  -4.359 -11.748  1.00  0.00    -0.504 OA
ATOM     20  H   UNL     1      12.353  -4.220 -10.806  1.00  0.00     0.293 HD
ENDBRANCH  16  19
BRANCH  18  21
ATOM     21  O   UNL     1      12.398  -1.523 -12.357  1.00  0.00    -0.504 OA
ATOM     22  H   UNL     1      11.650  -1.464 -13.038  1.00  0.00     0.293 HD
ENDBRANCH  18  21
ENDBRANCH   3  13
BRANCH  10  23
ATOM     23  O   UNL     1      20.880   1.826 -15.238  1.00  0.00    -0.507 OA
ATOM     24  H   UNL     1      20.757   2.168 -14.297  1.00  0.00     0.293 HD
ENDBRANCH  10  23
BRANCH  11  25
ATOM     25  O   UNL     1      19.682  -0.556 -19.232  1.00  0.00    -0.508 OA
ATOM     26  H   UNL     1      19.015  -0.195 -19.908  1.00  0.00     0.293 HD
ENDBRANCH  11  25
ENDBRANCH   1   2
BRANCH   1  27
ATOM     27  C   UNL     1      18.546  -0.930 -10.755  1.00  0.00     0.339 C 
ATOM     28  C   UNL     1      18.313  -2.423 -10.463  1.00  0.00     0.214 C 
ATOM     29  O   UNL     1      18.483  -0.127  -9.583  1.00  0.00    -0.332 OA
ATOM     30  C   UNL     1      16.988  -2.646  -9.703  1.00  0.00     0.180 C 
ATOM     31  C   UNL     1      17.246  -0.220  -8.861  1.00  0.00     0.179 C 
ATOM     32  C   UNL     1      16.828  -1.690  -8.502  1.00  0.00     0.177 C 
BRANCH  28  33
ATOM     33  O   UNL     1      19.428  -2.989  -9.811  1.00  0.00    -0.384 OA
ATOM     34  H   UNL     1      20.232  -2.777 -10.336  1.00  0.00     0.211 HD
ENDBRANCH  28  33
BRANCH  30  35
ATOM     35  O   UNL     1      16.902  -3.982  -9.286  1.00  0.00    -0.387 OA
ATOM     36  H   UNL     1      17.549  -4.495  -9.843  1.00  0.00     0.211 HD
ENDBRANCH  30  35
BRANCH  31  37
ATOM     37  C   UNL     1      16.105   0.638  -9.477  1.00  0.00     0.191 C 
BRANCH  37  38
ATOM     38  O   UNL     1      15.017  -0.135  -9.894  1.00  0.00    -0.394 OA
ATOM     39  H   UNL     1      14.479  -0.362  -9.097  1.00  0.00     0.210 HD
ENDBRANCH  37  38
ENDBRANCH  31  37
BRANCH  32  40
ATOM     40  O   UNL     1      17.506  -2.194  -7.369  1.00  0.00    -0.387 OA
ATOM     41  H   UNL     1      16.933  -2.858  -6.896  1.00  0.00     0.211 HD
ENDBRANCH  32  40
ENDBRANCH   1  27
TORSDOF 12
ENDMDL
MODEL 2
REMARK VINA RESULT:    -6.059      2.647      5.605
REMARK INTER + INTRA:         -10.188
REMARK INTER:                  -8.659
REMARK INTRA:                  -1.529
REMARK UNBOUND:                -1.296
REMARK SMILES O=c1c(O[C@H]2O[C@@H](CO)[C@H](O)[C@H](O)[C@@H]2O)c(-c2ccc(O)c(O)c2)oc2cc(O)cc(O)c12
REMARK SMILES IDX 4 1 3 2 16 3 25 4 2 5 26 6 1 7 33 8 27 9 31 10 28 11 30 12
REMARK SMILES IDX 17 13 18 14 19 15 20 16 24 17 22 18 21 19 23 21 32 23 29 25
REMARK SMILES IDX 5 27 14 28 6 29 12 30 7 31 10 32 15 33 13 35 8 37 9 38 11 40
REMARK H PARENT 21 20 23 22 32 24 29 26 15 34 13 36 9 39 11 41
REMARK Flexibility Score: inf
ROOT
ATOM      1  O   UNL     1      17.433  -0.922 -10.567  1.00  0.00    -0.454 OA
ENDROOT
BRANCH   1   2
ATOM      2  C   UNL     1      16.149  -0.460 -10.860  1.00  0.00     0.214 A 
ATOM      3  C   UNL     1      15.473  -0.846 -12.040  1.00  0.00     0.180 A 
ATOM      4  O   UNL     1      14.272  -0.340 -12.298  1.00  0.00    -0.452 OA
ATOM      5  C   UNL     1      15.545   0.470 -10.005  1.00  0.00     0.239 A 
ATOM      6  C   UNL     1      13.646   0.513 -11.494  1.00  0.00     0.146 A 
ATOM      7  O   UNL     1      16.216   0.904  -9.028  1.00  0.00    -0.285 OA
ATOM      8  C   UNL     1      14.236   0.929 -10.273  1.00  0.00     0.111 A 
ATOM      9  C   UNL     1      12.400   1.006 -11.889  1.00  0.00     0.094 A 
ATOM     10  C   UNL     1      13.484   1.780  -9.407  1.00  0.00     0.134 A 
ATOM     11  C   UNL     1      11.694   1.880 -11.061  1.00  0.00     0.123 A 
ATOM     12  C   UNL     1      12.242   2.271  -9.835  1.00  0.00     0.093 A 
BRANCH   3  13
ATOM     13  C   UNL     1      16.050  -1.800 -13.032  1.00  0.00     0.025 A 
ATOM     14  C   UNL     1      17.057  -1.425 -13.936  1.00  0.00     0.016 A 
ATOM     15  C   UNL     1      17.611  -2.359 -14.804  1.00  0.00     0.051 A 
ATOM     16  C   UNL     1      17.117  -3.667 -14.850  1.00  0.00     0.157 A 
ATOM     17  C   UNL     1      15.526  -3.103 -13.111  1.00  0.00     0.062 A 
ATOM     18  C   UNL     1      16.032  -4.036 -14.023  1.00  0.00     0.158 A 
BRANCH  16  19
ATOM     19  O   UNL     1      17.731  -4.564 -15.722  1.00  0.00    -0.504 OA
ATOM     20  H   UNL     1      17.338  -5.456 -15.981  1.00  0.00     0.293 HD
ENDBRANCH  16  19
BRANCH  18  21
ATOM     21  O   UNL     1      15.424  -5.290 -14.097  1.00  0.00    -0.504 OA
ATOM     22  H   UNL     1      15.592  -5.949 -14.847  1.00  0.00     0.293 HD
ENDBRANCH  18  21
ENDBRANCH   3  13
BRANCH  10  23
ATOM     23  O   UNL     1      13.883   2.128  -8.109  1.00  0.00    -0.507 OA
ATOM     24  H   UNL     1      13.984   3.079  -7.787  1.00  0.00     0.293 HD
ENDBRANCH  10  23
BRANCH  11  25
ATOM     25  O   UNL     1      10.441   2.348 -11.450  1.00  0.00    -0.508 OA
ATOM     26  H   UNL     1       9.801   1.755 -11.971  1.00  0.00     0.293 HD
ENDBRANCH  11  25
ENDBRANCH   1   2
BRANCH   1  27
ATOM     27  C   UNL     1      17.744  -2.283 -10.266  1.00  0.00     0.339 C 
ATOM     28  C   UNL     1      17.078  -2.733  -8.954  1.00  0.00     0.214 C 
ATOM     29  O   UNL     1      19.154  -2.478 -10.260  1.00  0.00    -0.332 OA
ATOM     30  C   UNL     1      17.731  -2.052  -7.731  1.00  0.00     0.180 C 
ATOM     31  C   UNL     1      19.843  -1.808  -9.194  1.00  0.00     0.179 C 
ATOM     32  C   UNL     1      19.273  -2.127  -7.767  1.00  0.00     0.177 C 
BRANCH  28  33
ATOM     33  O   UNL     1      17.054  -4.140  -8.857  1.00  0.00    -0.384 OA
ATOM     34  H   UNL     1      16.127  -4.420  -8.686  1.00  0.00     0.211 HD
ENDBRANCH  28  33
BRANCH  30  35
ATOM     35  O   UNL     1      17.236  -2.626  -6.552  1.00  0.00    -0.387 OA
ATOM     36  H   UNL     1      17.950  -2.527  -5.866  1.00  0.00     0.211 HD
ENDBRANCH  30  35
BRANCH  31  37
ATOM     37  C   UNL     1      20.082  -0.295  -9.465  1.00  0.00     0.191 C 
BRANCH  37  38
ATOM     38  O   UNL     1      19.197   0.523  -8.755  1.00  0.00    -0.394 OA
ATOM     39  H   UNL     1      19.691   1.326  -8.462  1.00  0.00     0.210 HD
ENDBRANCH  37  38
ENDBRANCH  31  37
BRANCH  32  40
ATOM     40  O   UNL     1      19.724  -3.365  -7.257  1.00  0.00    -0.387 OA
ATOM     41  H   UNL     1      19.785  -4.036  -7.992  1.00  0.00     0.211 HD
ENDBRANCH  32  40
ENDBRANCH   1  27
TORSDOF 12
ENDMDL
MODEL 3
REMARK VINA RESULT:    -6.050      2.537      5.466
REMARK INTER + INTRA:         -10.175
REMARK INTER:                  -8.733
REMARK INTRA:                  -1.442
REMARK UNBOUND:                -1.296
REMARK SMILES O=c1c(O[C@H]2O[C@@H](CO)[C@H](O)[C@H](O)[C@@H]2O)c(-c2ccc(O)c(O)c2)oc2cc(O)cc(O)c12
REMARK SMILES IDX 4 1 3 2 16 3 25 4 2 5 26 6 1 7 33 8 27 9 31 10 28 11 30 12
REMARK SMILES IDX 17 13 18 14 19 15 20 16 24 17 22 18 21 19 23 21 32 23 29 25
REMARK SMILES IDX 5 27 14 28 6 29 12 30 7 31 10 32 15 33 13 35 8 37 9 38 11 40
REMARK H PARENT 21 20 23 22 32 24 29 26 15 34 13 36 9 39 11 41
REMARK Flexibility Score: inf
ROOT
ATOM      1  O   UNL     1      17.019  -1.163 -11.248  1.00  0.00    -0.454 OA
ENDROOT
BRANCH   1   2
ATOM      2  C   UNL     1      15.752  -0.819 -11.721  1.00  0.00     0.214 A 
ATOM      3  C   UNL     1      15.241  -1.352 -12.927  1.00  0.00     0.180 A 
ATOM      4  O   UNL     1      14.048  -0.954 -13.359  1.00  0.00    -0.452 OA
ATOM      5  C   UNL     1      15.000   0.137 -11.027  1.00  0.00     0.239 A 
ATOM      6  C   UNL     1      13.285  -0.081 -12.712  1.00  0.00     0.146 A 
ATOM      7  O   UNL     1      15.527   0.699 -10.029  1.00  0.00    -0.285 OA
ATOM      8  C   UNL     1      13.706   0.479 -11.478  1.00  0.00     0.111 A 
ATOM      9  C   UNL     1      12.066   0.288 -13.284  1.00  0.00     0.094 A 
ATOM     10  C   UNL     1      12.810   1.347 -10.782  1.00  0.00     0.134 A 
ATOM     11  C   UNL     1      11.219   1.179 -12.623  1.00  0.00     0.123 A 
ATOM     12  C   UNL     1      11.598   1.711 -11.387  1.00  0.00     0.093 A 
BRANCH   3  13
ATOM     13  C   UNL     1      15.983  -2.345 -13.756  1.00  0.00     0.025 A 
ATOM     14  C   UNL     1      17.048  -1.976 -14.594  1.00  0.00     0.016 A 
ATOM     15  C   UNL     1      17.753  -2.940 -15.305  1.00  0.00     0.051 A 
ATOM     16  C   UNL     1      17.362  -4.282 -15.263  1.00  0.00     0.157 A 
ATOM     17  C   UNL     1      15.565  -3.688 -13.750  1.00  0.00     0.062 A 
ATOM     18  C   UNL     1      16.227  -4.658 -14.510  1.00  0.00     0.158 A 
BRANCH  16  19
ATOM     19  O   UNL     1      18.125  -5.204 -15.977  1.00  0.00    -0.504 OA
ATOM     20  H   UNL     1      17.770  -6.086 -16.318  1.00  0.00     0.293 HD
ENDBRANCH  16  19
BRANCH  18  21
ATOM     21  O   UNL     1      15.722  -5.959 -14.512  1.00  0.00    -0.504 OA
ATOM     22  H   UNL     1      14.847  -6.219 -14.950  1.00  0.00     0.293 HD
ENDBRANCH  18  21
ENDBRANCH   3  13
BRANCH  10  23
ATOM     23  O   UNL     1      13.036   1.833  -9.487  1.00  0.00    -0.507 OA
ATOM     24  H   UNL     1      12.635   1.427  -8.654  1.00  0.00     0.293 HD
ENDBRANCH  10  23
BRANCH  11  25
ATOM     25  O   UNL     1       9.993   1.524 -13.188  1.00  0.00    -0.508 OA
ATOM     26  H   UNL     1       9.613   2.461 -13.076  1.00  0.00     0.293 HD
ENDBRANCH  11  25
ENDBRANCH   1   2
BRANCH   1  27
ATOM     27  C   UNL     1      17.357  -2.450 -10.728  1.00  0.00     0.339 C 
ATOM     28  C   UNL     1      16.980  -2.569  -9.240  1.00  0.00     0.214 C 
ATOM     29  O   UNL     1      18.729  -2.737 -10.970  1.00  0.00    -0.332 OA
ATOM     30  C   UNL     1      17.898  -1.696  -8.357  1.00  0.00     0.180 C 
ATOM     31  C   UNL     1      19.649  -1.909 -10.242  1.00  0.00     0.179 C 
ATOM     32  C   UNL     1      19.393  -1.884  -8.694  1.00  0.00     0.177 C 
BRANCH  28  33
ATOM     33  O   UNL     1      16.944  -3.920  -8.836  1.00  0.00    -0.384 OA
ATOM     34  H   UNL     1      16.135  -4.058  -8.296  1.00  0.00     0.211 HD
ENDBRANCH  28  33
BRANCH  30  35
ATOM     35  O   UNL     1      17.657  -1.975  -7.006  1.00  0.00    -0.387 OA
ATOM     36  H   UNL     1      17.114  -2.809  -6.980  1.00  0.00     0.211 HD
ENDBRANCH  30  35
BRANCH  31  37
ATOM     37  C   UNL     1      19.858  -0.507 -10.881  1.00  0.00     0.191 C 
BRANCH  37  38
ATOM     38  O   UNL     1      19.761  -0.534 -12.276  1.00  0.00    -0.394 OA
ATOM     39  H   UNL     1      19.051   0.097 -12.546  1.00  0.00     0.210 HD
ENDBRANCH  37  38
ENDBRANCH  31  37
BRANCH  32  40
ATOM     40  O   UNL     1      19.916  -3.017  -8.030  1.00  0.00    -0.387 OA
ATOM     41  H   UNL     1      20.908  -2.949  -7.968  1.00  0.00     0.211 HD
ENDBRANCH  32  40
ENDBRANCH   1  27
TORSDOF 12
ENDMDL
MODEL 4
REMARK VINA RESULT:    -5.985      2.731      7.756
REMARK INTER + INTRA:         -10.079
REMARK INTER:                  -8.277
REMARK INTRA:                  -1.803
REMARK UNBOUND:                -1.296
REMARK SMILES O=c1c(O[C@H]2O[C@@H](CO)[C@H](O)[C@H](O)[C@@H]2O)c(-c2ccc(O)c(O)c2)oc2cc(O)cc(O)c12
REMARK SMILES IDX 4 1 3 2 16 3 25 4 2 5 26 6 1 7 33 8 27 9 31 10 28 11 30 12
REMARK SMILES IDX 17 13 18 14 19 15 20 16 24 17 22 18 21 19 23 21 32 23 29 25
REMARK SMILES IDX 5 27 14 28 6 29 12 30 7 31 10 32 15 33 13 35 8 37 9 38 11 40
REMARK H PARENT 21 20 23 22 32 24 29 26 15 34 13 36 9 39 11 41
REMARK Flexibility Score: inf
ROOT
ATOM      1  O   UNL     1      17.934  -0.211 -11.166  1.00  0.00    -0.454 OA
ENDROOT
BRANCH   1   2
ATOM      2  C   UNL     1      18.802  -0.626 -10.155  1.00  0.00     0.214 A 
ATOM      3  C   UNL     1      20.186  -0.339 -10.200  1.00  0.00     0.180 A 
ATOM      4  O   UNL     1      20.978  -0.800  -9.238  1.00  0.00    -0.452 OA
ATOM      5  C   UNL     1      18.306  -1.415  -9.109  1.00  0.00     0.239 A 
ATOM      6  C   UNL     1      20.543  -1.516  -8.207  1.00  0.00     0.146 A 
ATOM      7  O   UNL     1      17.097  -1.773  -9.155  1.00  0.00    -0.285 OA
ATOM      8  C   UNL     1      19.165  -1.823  -8.064  1.00  0.00     0.111 A 
ATOM      9  C   UNL     1      21.476  -1.976  -7.276  1.00  0.00     0.094 A 
ATOM     10  C   UNL     1      18.740  -2.523  -6.894  1.00  0.00     0.134 A 
ATOM     11  C   UNL     1      21.059  -2.706  -6.162  1.00  0.00     0.123 A 
ATOM     12  C   UNL     1      19.701  -2.985  -5.983  1.00  0.00     0.093 A 
BRANCH   3  13
ATOM     13  C   UNL     1      20.815   0.458 -11.293  1.00  0.00     0.025 A 
ATOM     14  C   UNL     1      21.657  -0.122 -12.255  1.00  0.00     0.016 A 
ATOM     15  C   UNL     1      22.176   0.645 -13.293  1.00  0.00     0.051 A 
ATOM     16  C   UNL     1      21.935   2.021 -13.349  1.00  0.00     0.157 A 
ATOM     17  C   UNL     1      20.610   1.849 -11.327  1.00  0.00     0.062 A 
ATOM     18  C   UNL     1      21.177   2.643 -12.331  1.00  0.00     0.158 A 
BRANCH  16  19
ATOM     19  O   UNL     1      22.460   2.730 -14.429  1.00  0.00    -0.504 OA
ATOM     20  H   UNL     1      23.293   3.298 -14.378  1.00  0.00     0.293 HD
ENDBRANCH  16  19
BRANCH  18  21
ATOM     21  O   UNL     1      20.991   4.024 -12.271  1.00  0.00    -0.504 OA
ATOM     22  H   UNL     1      21.606   4.692 -12.721  1.00  0.00     0.293 HD
ENDBRANCH  18  21
ENDBRANCH   3  13
BRANCH  10  23
ATOM     23  O   UNL     1      17.397  -2.743  -6.556  1.00  0.00    -0.507 OA
ATOM     24  H   UNL     1      16.987  -3.658  -6.444  1.00  0.00     0.293 HD
ENDBRANCH  10  23
BRANCH  11  25
ATOM     25  O   UNL     1      21.993  -3.141  -5.225  1.00  0.00    -0.508 OA
ATOM     26  H   UNL     1      21.930  -2.852  -4.252  1.00  0.00     0.293 HD
ENDBRANCH  11  25
ENDBRANCH   1   2
BRANCH   1  27
ATOM     27  C   UNL     1      17.664  -0.965 -12.348  1.00  0.00     0.339 C 
ATOM     28  C   UNL     1      18.149  -0.225 -13.607  1.00  0.00     0.214 C 
ATOM     29  O   UNL     1      16.285  -1.308 -12.411  1.00  0.00    -0.332 OA
ATOM     30  C   UNL     1      17.278   1.016 -13.900  1.00  0.00     0.180 C 
ATOM     31  C   UNL     1      15.402  -0.193 -12.603  1.00  0.00     0.179 C 
ATOM     32  C   UNL     1      15.767   0.704 -13.838  1.00  0.00     0.177 C 
BRANCH  28  33
ATOM     33  O   UNL     1      18.245  -1.106 -14.705  1.00  0.00    -0.384 OA
ATOM     34  H   UNL     1      18.171  -2.026 -14.368  1.00  0.00     0.211 HD
ENDBRANCH  28  33
BRANCH  30  35
ATOM     35  O   UNL     1      17.622   1.550 -15.149  1.00  0.00    -0.387 OA
ATOM     36  H   UNL     1      17.891   0.782 -15.722  1.00  0.00     0.211 HD
ENDBRANCH  30  35
BRANCH  31  37
ATOM     37  C   UNL     1      15.116   0.601 -11.297  1.00  0.00     0.191 C 
BRANCH  37  38
ATOM     38  O   UNL     1      15.001  -0.231 -10.178  1.00  0.00    -0.394 OA
ATOM     39  H   UNL     1      14.070  -0.179  -9.852  1.00  0.00     0.210 HD
ENDBRANCH  37  38
ENDBRANCH  31  37
BRANCH  32  40
ATOM     40  O   UNL     1      15.319   0.162 -15.065  1.00  0.00    -0.387 OA
ATOM     41  H   UNL     1      15.000  -0.773 -14.929  1.00  0.00     0.211 HD
ENDBRANCH  32  40
ENDBRANCH   1  27
TORSDOF 12
ENDMDL
MODEL 5
REMARK VINA RESULT:    -5.950      2.764      7.056
REMARK INTER + INTRA:         -10.028
REMARK INTER:                  -8.307
REMARK INTRA:                  -1.722
REMARK UNBOUND:                -1.296
REMARK SMILES O=c1c(O[C@H]2O[C@@H](CO)[C@H](O)[C@H](O)[C@@H]2O)c(-c2ccc(O)c(O)c2)oc2cc(O)cc(O)c12
REMARK SMILES IDX 4 1 3 2 16 3 25 4 2 5 26 6 1 7 33 8 27 9 31 10 28 11 30 12
REMARK SMILES IDX 17 13 18 14 19 15 20 16 24 17 22 18 21 19 23 21 32 23 29 25
REMARK SMILES IDX 5 27 14 28 6 29 12 30 7 31 10 32 15 33 13 35 8 37 9 38 11 40
REMARK H PARENT 21 20 23 22 32 24 29 26 15 34 13 36 9 39 11 41
REMARK Flexibility Score: inf
ROOT
ATOM      1  O   UNL     1      16.320  -1.208 -11.938  1.00  0.00    -0.454 OA
ENDROOT
BRANCH   1   2
ATOM      2  C   UNL     1      15.587  -0.352 -11.115  1.00  0.00     0.214 A 
ATOM      3  C   UNL     1      15.949  -0.128  -9.767  1.00  0.00     0.180 A 
ATOM      4  O   UNL     1      15.190   0.658  -9.011  1.00  0.00    -0.452 OA
ATOM      5  C   UNL     1      14.418   0.239 -11.611  1.00  0.00     0.239 A 
ATOM      6  C   UNL     1      14.097   1.270  -9.452  1.00  0.00     0.146 A 
ATOM      7  O   UNL     1      14.037  -0.077 -12.772  1.00  0.00    -0.285 OA
ATOM      8  C   UNL     1      13.678   1.128 -10.800  1.00  0.00     0.111 A 
ATOM      9  C   UNL     1      13.358   2.043  -8.554  1.00  0.00     0.094 A 
ATOM     10  C   UNL     1      12.544   1.875 -11.244  1.00  0.00     0.134 A 
ATOM     11  C   UNL     1      12.221   2.727  -8.983  1.00  0.00     0.123 A 
ATOM     12  C   UNL     1      11.814   2.631 -10.317  1.00  0.00     0.093 A 
BRANCH   3  13
ATOM     13  C   UNL     1      17.153  -0.743  -9.136  1.00  0.00     0.025 A 
ATOM     14  C   UNL     1      18.424  -0.150  -9.207  1.00  0.00     0.016 A 
ATOM     15  C   UNL     1      19.508  -0.724  -8.553  1.00  0.00     0.051 A 
ATOM     16  C   UNL     1      19.371  -1.945  -7.885  1.00  0.00     0.157 A 
ATOM     17  C   UNL     1      17.027  -1.992  -8.500  1.00  0.00     0.062 A 
ATOM     18  C   UNL     1      18.125  -2.611  -7.892  1.00  0.00     0.158 A 
BRANCH  16  19
ATOM     19  O   UNL     1      20.489  -2.456  -7.228  1.00  0.00    -0.504 OA
ATOM     20  H   UNL     1      20.923  -3.337  -7.457  1.00  0.00     0.293 HD
ENDBRANCH  16  19
BRANCH  18  21
ATOM     21  O   UNL     1      17.949  -3.879  -7.337  1.00  0.00    -0.504 OA
ATOM     22  H   UNL     1      17.653  -4.687  -7.871  1.00  0.00     0.293 HD
ENDBRANCH  18  21
ENDBRANCH   3  13
BRANCH  10  23
ATOM     23  O   UNL     1      12.128   1.949 -12.581  1.00  0.00    -0.507 OA
ATOM     24  H   UNL     1      12.660   1.585 -13.358  1.00  0.00     0.293 HD
ENDBRANCH  10  23
BRANCH  11  25
ATOM     25  O   UNL     1      11.503   3.516  -8.086  1.00  0.00    -0.508 OA
ATOM     26  H   UNL     1      10.984   4.329  -8.407  1.00  0.00     0.293 HD
ENDBRANCH  11  25
ENDBRANCH   1   2
BRANCH   1  27
ATOM     27  C   UNL     1      16.036  -2.598 -12.102  1.00  0.00     0.339 C 
ATOM     28  C   UNL     1      17.215  -3.470 -11.636  1.00  0.00     0.214 C 
ATOM     29  O   UNL     1      15.651  -2.869 -13.445  1.00  0.00    -0.332 OA
ATOM     30  C   UNL     1      18.418  -3.347 -12.598  1.00  0.00     0.180 C 
ATOM     31  C   UNL     1      16.699  -2.698 -14.411  1.00  0.00     0.179 C 
ATOM     32  C   UNL     1      18.008  -3.499 -14.078  1.00  0.00     0.177 C 
BRANCH  28  33
ATOM     33  O   UNL     1      16.805  -4.803 -11.429  1.00  0.00    -0.384 OA
ATOM     34  H   UNL     1      16.491  -5.166 -12.287  1.00  0.00     0.211 HD
ENDBRANCH  28  33
BRANCH  30  35
ATOM     35  O   UNL     1      19.393  -4.293 -12.255  1.00  0.00    -0.387 OA
ATOM     36  H   UNL     1      18.983  -5.188 -12.399  1.00  0.00     0.211 HD
ENDBRANCH  30  35
BRANCH  31  37
ATOM     37  C   UNL     1      16.939  -1.214 -14.808  1.00  0.00     0.191 C 
BRANCH  37  38
ATOM     38  O   UNL     1      15.752  -0.476 -14.863  1.00  0.00    -0.394 OA
ATOM     39  H   UNL     1      15.076  -0.942 -14.315  1.00  0.00     0.210 HD
ENDBRANCH  37  38
ENDBRANCH  31  37
BRANCH  32  40
ATOM     40  O   UNL     1      17.924  -4.864 -14.435  1.00  0.00    -0.387 OA
ATOM     41  H   UNL     1      17.335  -5.349 -13.795  1.00  0.00     0.211 HD
ENDBRANCH  32  40
ENDBRANCH   1  27
TORSDOF 12
ENDMDL
MODEL 6
REMARK VINA RESULT:    -5.921      1.934      3.247
REMARK INTER + INTRA:          -9.986
REMARK INTER:                  -8.207
REMARK INTRA:                  -1.779
REMARK UNBOUND:                -1.296
REMARK SMILES O=c1c(O[C@H]2O[C@@H](CO)[C@H](O)[C@H](O)[C@@H]2O)c(-c2ccc(O)c(O)c2)oc2cc(O)cc(O)c12
REMARK SMILES IDX 4 1 3 2 16 3 25 4 2 5 26 6 1 7 33 8 27 9 31 10 28 11 30 12
REMARK SMILES IDX 17 13 18 14 19 15 20 16 24 17 22 18 21 19 23 21 32 23 29 25
REMARK SMILES IDX 5 27 14 28 6 29 12 30 7 31 10 32 15 33 13 35 8 37 9 38 11 40
REMARK H PARENT 21 20 23 22 32 24 29 26 15 34 13 36 9 39 11 41
REMARK Flexibility Score: inf
ROOT
ATOM      1  O   UNL     1      19.311   0.689 -13.627  1.00  0.00    -0.454 OA
ENDROOT
BRANCH   1   2
ATOM      2  C   UNL     1      19.233   0.384 -14.987  1.00  0.00     0.214 A 
ATOM      3  C   UNL     1      18.121  -0.297 -15.532  1.00  0.00     0.180 A 
ATOM      4  O   UNL     1      18.118  -0.608 -16.825  1.00  0.00    -0.452 OA
ATOM      5  C   UNL     1      20.318   0.690 -15.819  1.00  0.00     0.239 A 
ATOM      6  C   UNL     1      19.106  -0.301 -17.657  1.00  0.00     0.146 A 
ATOM      7  O   UNL     1      21.355   1.176 -15.291  1.00  0.00    -0.285 OA
ATOM      8  C   UNL     1      20.246   0.412 -17.202  1.00  0.00     0.111 A 
ATOM      9  C   UNL     1      19.007  -0.712 -18.988  1.00  0.00     0.094 A 
ATOM     10  C   UNL     1      21.239   0.790 -18.156  1.00  0.00     0.134 A 
ATOM     11  C   UNL     1      20.008  -0.384 -19.903  1.00  0.00     0.123 A 
ATOM     12  C   UNL     1      21.121   0.351 -19.483  1.00  0.00     0.093 A 
BRANCH   3  13
ATOM     13  C   UNL     1      16.937  -0.701 -14.720  1.00  0.00     0.025 A 
ATOM     14  C   UNL     1      16.760  -2.013 -14.252  1.00  0.00     0.016 A 
ATOM     15  C   UNL     1      15.673  -2.335 -13.446  1.00  0.00     0.051 A 
ATOM     16  C   UNL     1      14.694  -1.378 -13.159  1.00  0.00     0.157 A 
ATOM     17  C   UNL     1      15.929   0.247 -14.465  1.00  0.00     0.062 A 
ATOM     18  C   UNL     1      14.799  -0.081 -13.708  1.00  0.00     0.158 A 
BRANCH  16  19
ATOM     19  O   UNL     1      13.643  -1.755 -12.325  1.00  0.00    -0.504 OA
ATOM     20  H   UNL     1      13.101  -1.106 -11.773  1.00  0.00     0.293 HD
ENDBRANCH  16  19
BRANCH  18  21
ATOM     21  O   UNL     1      13.804   0.885 -13.548  1.00  0.00    -0.504 OA
ATOM     22  H   UNL     1      12.821   0.664 -13.444  1.00  0.00     0.293 HD
ENDBRANCH  18  21
ENDBRANCH   3  13
BRANCH  10  23
ATOM     23  O   UNL     1      22.325   1.630 -17.867  1.00  0.00    -0.507 OA
ATOM     24  H   UNL     1      22.232   2.564 -17.498  1.00  0.00     0.293 HD
ENDBRANCH  10  23
BRANCH  11  25
ATOM     25  O   UNL     1      19.890  -0.777 -21.235  1.00  0.00    -0.508 OA
ATOM     26  H   UNL     1      20.620  -0.559 -21.909  1.00  0.00     0.293 HD
ENDBRANCH  11  25
ENDBRANCH   1   2
BRANCH   1  27
ATOM     27  C   UNL     1      19.828  -0.201 -12.636  1.00  0.00     0.339 C 
ATOM     28  C   UNL     1      18.758  -0.554 -11.588  1.00  0.00     0.214 C 
ATOM     29  O   UNL     1      21.008   0.340 -12.054  1.00  0.00    -0.332 OA
ATOM     30  C   UNL     1      18.433   0.658 -10.688  1.00  0.00     0.180 C 
ATOM     31  C   UNL     1      20.796   1.520 -11.264  1.00  0.00     0.179 C 
ATOM     32  C   UNL     1      19.703   1.353 -10.151  1.00  0.00     0.177 C 
BRANCH  28  33
ATOM     33  O   UNL     1      19.127  -1.703 -10.858  1.00  0.00    -0.384 OA
ATOM     34  H   UNL     1      20.074  -1.618 -10.609  1.00  0.00     0.211 HD
ENDBRANCH  28  33
BRANCH  30  35
ATOM     35  O   UNL     1      17.606   0.253  -9.631  1.00  0.00    -0.387 OA
ATOM     36  H   UNL     1      16.671   0.296  -9.969  1.00  0.00     0.211 HD
ENDBRANCH  30  35
BRANCH  31  37
ATOM     37  C   UNL     1      20.655   2.815 -12.113  1.00  0.00     0.191 C 
BRANCH  37  38
ATOM     38  O   UNL     1      21.574   2.868 -13.166  1.00  0.00    -0.394 OA
ATOM     39  H   UNL     1      21.266   2.252 -13.873  1.00  0.00     0.210 HD
ENDBRANCH  37  38
ENDBRANCH  31  37
BRANCH  32  40
ATOM     40  O   UNL     1      20.185   0.690  -8.999  1.00  0.00    -0.387 OA
ATOM     41  H   UNL     1      20.640   1.340  -8.397  1.00  0.00     0.211 HD
ENDBRANCH  32  40
ENDBRANCH   1  27
TORSDOF 12
ENDMDL
MODEL 7
REMARK VINA RESULT:    -5.919      2.796      5.007
REMARK INTER + INTRA:          -9.983
REMARK INTER:                  -8.593
REMARK INTRA:                  -1.391
REMARK UNBOUND:                -1.296
REMARK SMILES O=c1c(O[C@H]2O[C@@H](CO)[C@H](O)[C@H](O)[C@@H]2O)c(-c2ccc(O)c(O)c2)oc2cc(O)cc(O)c12
REMARK SMILES IDX 4 1 3 2 16 3 25 4 2 5 26 6 1 7 33 8 27 9 31 10 28 11 30 12
REMARK SMILES IDX 17 13 18 14 19 15 20 16 24 17 22 18 21 19 23 21 32 23 29 25
REMARK SMILES IDX 5 27 14 28 6 29 12 30 7 31 10 32 15 33 13 35 8 37 9 38 11 40
REMARK H PARENT 21 20 23 22 32 24 29 26 15 34 13 36 9 39 11 41
REMARK Flexibility Score: inf
ROOT
ATOM      1  O   UNL     1      17.329  -2.529 -11.833  1.00  0.00    -0.454 OA
ENDROOT
BRANCH   1   2
ATOM      2  C   UNL     1      17.606  -3.315 -12.952  1.00  0.00     0.214 A 
ATOM      3  C   UNL     1      17.666  -2.761 -14.251  1.00  0.00     0.180 A 
ATOM      4  O   UNL     1      17.884  -3.561 -15.290  1.00  0.00    -0.452 OA
ATOM      5  C   UNL     1      17.752  -4.699 -12.796  1.00  0.00     0.239 A 
ATOM      6  C   UNL     1      18.068  -4.872 -15.183  1.00  0.00     0.146 A 
ATOM      7  O   UNL     1      17.563  -5.193 -11.651  1.00  0.00    -0.285 OA
ATOM      8  C   UNL     1      18.058  -5.507 -13.914  1.00  0.00     0.111 A 
ATOM      9  C   UNL     1      18.254  -5.615 -16.351  1.00  0.00     0.094 A 
ATOM     10  C   UNL     1      18.345  -6.904 -13.849  1.00  0.00     0.134 A 
ATOM     11  C   UNL     1      18.480  -6.990 -16.282  1.00  0.00     0.123 A 
ATOM     12  C   UNL     1      18.513  -7.628 -15.038  1.00  0.00     0.093 A 
BRANCH   3  13
ATOM     13  C   UNL     1      17.484  -1.306 -14.524  1.00  0.00     0.025 A 
ATOM     14  C   UNL     1      16.222  -0.739 -14.763  1.00  0.00     0.016 A 
ATOM     15  C   UNL     1      16.088   0.632 -14.952  1.00  0.00     0.051 A 
ATOM     16  C   UNL     1      17.216   1.458 -14.992  1.00  0.00     0.157 A 
ATOM     17  C   UNL     1      18.620  -0.480 -14.607  1.00  0.00     0.062 A 
ATOM     18  C   UNL     1      18.504   0.892 -14.860  1.00  0.00     0.158 A 
BRANCH  16  19
ATOM     19  O   UNL     1      17.015   2.827 -15.159  1.00  0.00    -0.504 OA
ATOM     20  H   UNL     1      17.272   3.336 -15.992  1.00  0.00     0.293 HD
ENDBRANCH  16  19
BRANCH  18  21
ATOM     21  O   UNL     1      19.672   1.643 -14.996  1.00  0.00    -0.504 OA
ATOM     22  H   UNL     1      20.369   1.468 -15.710  1.00  0.00     0.293 HD
ENDBRANCH  18  21
ENDBRANCH   3  13
BRANCH  10  23
ATOM     23  O   UNL     1      18.524  -7.613 -12.652  1.00  0.00    -0.507 OA
ATOM     24  H   UNL     1      19.384  -7.619 -12.125  1.00  0.00     0.293 HD
ENDBRANCH  10  23
BRANCH  11  25
ATOM     25  O   UNL     1      18.688  -7.721 -17.450  1.00  0.00    -0.508 OA
ATOM     26  H   UNL     1      19.251  -7.343 -18.208  1.00  0.00     0.293 HD
ENDBRANCH  11  25
ENDBRANCH   1   2
BRANCH   1  27
ATOM     27  C   UNL     1      18.328  -1.987 -10.969  1.00  0.00     0.339 C 
ATOM     28  C   UNL     1      18.346  -2.709  -9.610  1.00  0.00     0.214 C 
ATOM     29  O   UNL     1      18.159  -0.580 -10.839  1.00  0.00    -0.332 OA
ATOM     30  C   UNL     1      17.090  -2.372  -8.778  1.00  0.00     0.180 C 
ATOM     31  C   UNL     1      16.967  -0.185 -10.144  1.00  0.00     0.179 C 
ATOM     32  C   UNL     1      16.800  -0.856  -8.735  1.00  0.00     0.177 C 
BRANCH  28  33
ATOM     33  O   UNL     1      19.551  -2.457  -8.921  1.00  0.00    -0.384 OA
ATOM     34  H   UNL     1      20.036  -1.748  -9.399  1.00  0.00     0.211 HD
ENDBRANCH  28  33
BRANCH  30  35
ATOM     35  O   UNL     1      17.230  -2.886  -7.482  1.00  0.00    -0.387 OA
ATOM     36  H   UNL     1      17.725  -3.744  -7.570  1.00  0.00     0.211 HD
ENDBRANCH  30  35
BRANCH  31  37
ATOM     37  C   UNL     1      15.690  -0.228 -11.030  1.00  0.00     0.191 C 
BRANCH  37  38
ATOM     38  O   UNL     1      14.943  -1.395 -10.836  1.00  0.00    -0.394 OA
ATOM     39  H   UNL     1      14.583  -1.677 -11.711  1.00  0.00     0.210 HD
ENDBRANCH  37  38
ENDBRANCH  31  37
BRANCH  32  40
ATOM     40  O   UNL     1      17.572  -0.229  -7.730  1.00  0.00    -0.387 OA
ATOM     41  H   UNL     1      17.553   0.760  -7.852  1.00  0.00     0.211 HD
ENDBRANCH  32  40
ENDBRANCH   1  27
TORSDOF 12
ENDMDL
MODEL 8
REMARK VINA RESULT:    -5.758      2.406      6.301
REMARK INTER + INTRA:          -9.747
REMARK INTER:                  -8.428
REMARK INTRA:                  -1.319
REMARK UNBOUND:                -1.296
REMARK SMILES O=c1c(O[C@H]2O[C@@H](CO)[C@H](O)[C@H](O)[C@@H]2O)c(-c2ccc(O)c(O)c2)oc2cc(O)cc(O)c12
REMARK SMILES IDX 4 1 3 2 16 3 25 4 2 5 26 6 1 7 33 8 27 9 31 10 28 11 30 12
REMARK SMILES IDX 17 13 18 14 19 15 20 16 24 17 22 18 21 19 23 21 32 23 29 25
REMARK SMILES IDX 5 27 14 28 6 29 12 30 7 31 10 32 15 33 13 35 8 37 9 38 11 40
REMARK H PARENT 21 20 23 22 32 24 29 26 15 34 13 36 9 39 11 41
REMARK Flexibility Score: inf
ROOT
ATOM      1  O   UNL     1      17.545  -1.551 -13.310  1.00  0.00    -0.454 OA
ENDROOT
BRANCH   1   2
ATOM      2  C   UNL     1      16.491  -0.777 -13.798  1.00  0.00     0.214 A 
ATOM      3  C   UNL     1      16.625   0.005 -14.967  1.00  0.00     0.180 A 
ATOM      4  O   UNL     1      15.607   0.763 -15.364  1.00  0.00    -0.452 OA
ATOM      5  C   UNL     1      15.296  -0.713 -13.071  1.00  0.00     0.239 A 
ATOM      6  C   UNL     1      14.443   0.822 -14.727  1.00  0.00     0.146 A 
ATOM      7  O   UNL     1      15.241  -1.312 -11.962  1.00  0.00    -0.285 OA
ATOM      8  C   UNL     1      14.210   0.044 -13.563  1.00  0.00     0.111 A 
ATOM      9  C   UNL     1      13.459   1.682 -15.218  1.00  0.00     0.094 A 
ATOM     10  C   UNL     1      12.913   0.081 -12.967  1.00  0.00     0.134 A 
ATOM     11  C   UNL     1      12.211   1.753 -14.598  1.00  0.00     0.123 A 
ATOM     12  C   UNL     1      11.948   0.965 -13.473  1.00  0.00     0.093 A 
BRANCH   3  13
ATOM     13  C   UNL     1      17.870   0.035 -15.788  1.00  0.00     0.025 A 
ATOM     14  C   UNL     1      18.929   0.916 -15.513  1.00  0.00     0.016 A 
ATOM     15  C   UNL     1      20.098   0.870 -16.265  1.00  0.00     0.051 A 
ATOM     16  C   UNL     1      20.207   0.005 -17.358  1.00  0.00     0.157 A 
ATOM     17  C   UNL     1      17.966  -0.803 -16.914  1.00  0.00     0.062 A 
ATOM     18  C   UNL     1      19.113  -0.814 -17.716  1.00  0.00     0.158 A 
BRANCH  16  19
ATOM     19  O   UNL     1      21.414  -0.013 -18.055  1.00  0.00    -0.504 OA
ATOM     20  H   UNL     1      22.229  -0.529 -17.758  1.00  0.00     0.293 HD
ENDBRANCH  16  19
BRANCH  18  21
ATOM     21  O   UNL     1      19.118  -1.619 -18.856  1.00  0.00    -0.504 OA
ATOM     22  H   UNL     1      19.659  -1.409 -19.686  1.00  0.00     0.293 HD
ENDBRANCH  18  21
ENDBRANCH   3  13
BRANCH  10  23
ATOM     23  O   UNL     1      12.507  -0.758 -11.919  1.00  0.00    -0.507 OA
ATOM     24  H   UNL     1      13.080  -0.976 -11.117  1.00  0.00     0.293 HD
ENDBRANCH  10  23
BRANCH  11  25
ATOM     25  O   UNL     1      11.226   2.596 -15.108  1.00  0.00    -0.508 OA
ATOM     26  H   UNL     1      11.144   2.756 -16.109  1.00  0.00     0.293 HD
ENDBRANCH  11  25
ENDBRANCH   1   2
BRANCH   1  27
ATOM     27  C   UNL     1      18.044  -2.723 -13.955  1.00  0.00     0.339 C 
ATOM     28  C   UNL     1      16.904  -3.545 -14.582  1.00  0.00     0.214 C 
ATOM     29  O   UNL     1      18.836  -3.485 -13.052  1.00  0.00    -0.332 OA
ATOM     30  C   UNL     1      16.030  -4.211 -13.497  1.00  0.00     0.180 C 
ATOM     31  C   UNL     1      18.104  -4.073 -11.966  1.00  0.00     0.179 C 
ATOM     32  C   UNL     1      16.871  -4.932 -12.421  1.00  0.00     0.177 C 
BRANCH  28  33
ATOM     33  O   UNL     1      17.405  -4.461 -15.529  1.00  0.00    -0.384 OA
ATOM     34  H   UNL     1      18.249  -4.829 -15.185  1.00  0.00     0.211 HD
ENDBRANCH  28  33
BRANCH  30  35
ATOM     35  O   UNL     1      15.129  -5.101 -14.097  1.00  0.00    -0.387 OA
ATOM     36  H   UNL     1      15.440  -6.018 -13.868  1.00  0.00     0.211 HD
ENDBRANCH  30  35
BRANCH  31  37
ATOM     37  C   UNL     1      17.799  -3.075 -10.813  1.00  0.00     0.191 C 
BRANCH  37  38
ATOM     38  O   UNL     1      16.556  -3.309 -10.216  1.00  0.00    -0.394 OA
ATOM     39  H   UNL     1      16.568  -2.905  -9.315  1.00  0.00     0.210 HD
ENDBRANCH  37  38
ENDBRANCH  31  37
BRANCH  32  40
ATOM     40  O   UNL     1      17.233  -6.228 -12.856  1.00  0.00    -0.387 OA
ATOM     41  H   UNL     1      17.415  -6.221 -13.836  1.00  0.00     0.211 HD
ENDBRANCH  32  40
ENDBRANCH   1  27
TORSDOF 12
ENDMDL
MODEL 9
REMARK VINA RESULT:    -5.713      3.886      6.966
REMARK INTER + INTRA:          -9.681
REMARK INTER:                  -8.114
REMARK INTRA:                  -1.567
REMARK UNBOUND:                -1.296
REMARK SMILES O=c1c(O[C@H]2O[C@@H](CO)[C@H](O)[C@H](O)[C@@H]2O)c(-c2ccc(O)c(O)c2)oc2cc(O)cc(O)c12
REMARK SMILES IDX 4 1 3 2 16 3 25 4 2 5 26 6 1 7 33 8 27 9 31 10 28 11 30 12
REMARK SMILES IDX 17 13 18 14 19 15 20 16 24 17 22 18 21 19 23 21 32 23 29 25
REMARK SMILES IDX 5 27 14 28 6 29 12 30 7 31 10 32 15 33 13 35 8 37 9 38 11 40
REMARK H PARENT 21 20 23 22 32 24 29 26 15 34 13 36 9 39 11 41
REMARK Flexibility Score: inf
ROOT
ATOM      1  O   UNL     1      17.983   0.197  -9.368  1.00  0.00    -0.454 OA
ENDROOT
BRANCH   1   2
ATOM      2  C   UNL     1      17.359  -0.992  -9.752  1.00  0.00     0.214 A 
ATOM      3  C   UNL     1      17.752  -2.241  -9.221  1.00  0.00     0.180 A 
ATOM      4  O   UNL     1      17.160  -3.349  -9.656  1.00  0.00    -0.452 OA
ATOM      5  C   UNL     1      16.372  -0.955 -10.744  1.00  0.00     0.239 A 
ATOM      6  C   UNL     1      16.192  -3.356 -10.565  1.00  0.00     0.146 A 
ATOM      7  O   UNL     1      16.127   0.150 -11.302  1.00  0.00    -0.285 OA
ATOM      8  C   UNL     1      15.712  -2.144 -11.127  1.00  0.00     0.111 A 
ATOM      9  C   UNL     1      15.670  -4.586 -10.970  1.00  0.00     0.094 A 
ATOM     10  C   UNL     1      14.613  -2.203 -12.037  1.00  0.00     0.134 A 
ATOM     11  C   UNL     1      14.631  -4.638 -11.901  1.00  0.00     0.123 A 
ATOM     12  C   UNL     1      14.118  -3.453 -12.437  1.00  0.00     0.093 A 
BRANCH   3  13
ATOM     13  C   UNL     1      18.820  -2.386  -8.190  1.00  0.00     0.025 A 
ATOM     14  C   UNL     1      18.529  -2.610  -6.834  1.00  0.00     0.016 A 
ATOM     15  C   UNL     1      19.554  -2.801  -5.914  1.00  0.00     0.051 A 
ATOM     16  C   UNL     1      20.891  -2.690  -6.307  1.00  0.00     0.157 A 
ATOM     17  C   UNL     1      20.165  -2.233  -8.573  1.00  0.00     0.062 A 
ATOM     18  C   UNL     1      21.204  -2.361  -7.645  1.00  0.00     0.158 A 
BRANCH  16  19
ATOM     19  O   UNL     1      21.873  -2.918  -5.343  1.00  0.00    -0.504 OA
ATOM     20  H   UNL     1      22.685  -3.498  -5.493  1.00  0.00     0.293 HD
ENDBRANCH  16  19
BRANCH  18  21
ATOM     21  O   UNL     1      22.512  -2.131  -8.075  1.00  0.00    -0.504 OA
ATOM     22  H   UNL     1      23.306  -2.080  -7.449  1.00  0.00     0.293 HD
ENDBRANCH  18  21
ENDBRANCH   3  13
BRANCH  10  23
ATOM     23  O   UNL     1      13.944  -1.075 -12.533  1.00  0.00    -0.507 OA
ATOM     24  H   UNL     1      14.157  -0.637 -13.417  1.00  0.00     0.293 HD
ENDBRANCH  10  23
BRANCH  11  25
ATOM     25  O   UNL     1      14.099  -5.868 -12.283  1.00  0.00    -0.508 OA
ATOM     26  H   UNL     1      13.095  -6.030 -12.264  1.00  0.00     0.293 HD
ENDBRANCH  11  25
ENDBRANCH   1   2
BRANCH   1  27
ATOM     27  C   UNL     1      17.672   0.914  -8.173  1.00  0.00     0.339 C 
ATOM     28  C   UNL     1      16.896   2.206  -8.480  1.00  0.00     0.214 C 
ATOM     29  O   UNL     1      18.854   1.151  -7.418  1.00  0.00    -0.332 OA
ATOM     30  C   UNL     1      17.799   3.252  -9.170  1.00  0.00     0.180 C 
ATOM     31  C   UNL     1      19.783   2.056  -8.034  1.00  0.00     0.179 C 
ATOM     32  C   UNL     1      19.152   3.432  -8.448  1.00  0.00     0.177 C 
BRANCH  28  33
ATOM     33  O   UNL     1      16.260   2.700  -7.322  1.00  0.00    -0.384 OA
ATOM     34  H   UNL     1      16.953   3.034  -6.710  1.00  0.00     0.211 HD
ENDBRANCH  28  33
BRANCH  30  35
ATOM     35  O   UNL     1      17.120   4.475  -9.259  1.00  0.00    -0.387 OA
ATOM     36  H   UNL     1      16.376   4.436  -8.599  1.00  0.00     0.211 HD
ENDBRANCH  30  35
BRANCH  31  37
ATOM     37  C   UNL     1      20.655   1.391  -9.137  1.00  0.00     0.191 C 
BRANCH  37  38
ATOM     38  O   UNL     1      21.859   0.887  -8.636  1.00  0.00    -0.394 OA
ATOM     39  H   UNL     1      22.586   1.176  -9.239  1.00  0.00     0.210 HD
ENDBRANCH  37  38
ENDBRANCH  31  37
BRANCH  32  40
ATOM     40  O   UNL     1      19.024   4.329  -7.364  1.00  0.00    -0.387 OA
ATOM     41  H   UNL     1      19.133   5.267  -7.682  1.00  0.00     0.211 HD
ENDBRANCH  32  40
ENDBRANCH   1  27
TORSDOF 12
ENDMDL
