MODEL 1
REMARK VINA RESULT:    -5.930      0.000      0.000
REMARK INTER + INTRA:         -18.405
REMARK INTER:                 -14.942
REMARK INTRA:                  -3.462
REMARK UNBOUND:                -3.462
REMARK SMILES CCCCCCCCCCCCCCCCCCCCCCCCCCCC(=O)[O-]
REMARK SMILES IDX 15 1 16 2 17 3 18 4 19 5 20 6 21 7 22 8 23 9 24 10 25 11
REMARK SMILES IDX 26 12 27 13 28 14 29 15 30 16 14 17 13 18 12 19 11 20 10 21
REMARK SMILES IDX 9 22 8 23 7 24 6 25 5 26 4 27 3 28 2 29 1 30
REMARK H PARENT
REMARK Flexibility Score: inf
ROOT
ATOM      1  C   UNL     1      17.189   0.962  17.447  1.00  0.00     0.000 C 
ENDROOT
BRANCH   1   2
ATOM      2  C   UNL     1      16.185   0.073  16.692  1.00  0.00     0.000 C 
BRANCH   2   3
ATOM      3  C   UNL     1      16.856  -0.808  15.628  1.00  0.00     0.000 C 
BRANCH   3   4
ATOM      4  C   UNL     1      17.474   0.007  14.482  1.00  0.00     0.000 C 
BRANCH   4   5
ATOM      5  C   UNL     1      18.889  -0.493  14.152  1.00  0.00     0.000 C 
BRANCH   5   6
ATOM      6  C   UNL     1      19.506  -1.319  15.301  1.00  0.00     0.000 C 
BRANCH   6   7
ATOM      7  C   UNL     1      20.699  -0.635  15.997  1.00  0.00     0.000 C 
BRANCH   7   8
ATOM      8  C   UNL     1      22.034  -1.404  15.931  1.00  0.00     0.000 C 
BRANCH   8   9
ATOM      9  C   UNL     1      23.281  -0.563  16.275  1.00  0.00     0.000 C 
BRANCH   9  10
ATOM     10  C   UNL     1      23.021   0.960  16.281  1.00  0.00     0.000 C 
BRANCH  10  11
ATOM     11  C   UNL     1      24.253   1.794  15.896  1.00  0.00     0.000 C 
BRANCH  11  12
ATOM     12  C   UNL     1      24.735   2.703  17.039  1.00  0.00     0.006 C 
BRANCH  12  13
ATOM     13  C   UNL     1      25.653   1.963  18.021  1.00  0.00     0.053 C 
BRANCH  13  14
ATOM     14  C   UNL     1      27.088   2.032  17.597  1.00  0.00     0.041 C 
ATOM     15  O   UNL     1      27.917   1.187  18.024  1.00  0.00    -0.550 OA
ATOM     16  O   UNL     1      27.520   3.060  16.769  1.00  0.00    -0.550 OA
ENDBRANCH  13  14
ENDBRANCH  12  13
ENDBRANCH  11  12
ENDBRANCH  10  11
ENDBRANCH   9  10
ENDBRANCH   8   9
ENDBRANCH   7   8
ENDBRANCH   6   7
ENDBRANCH   5   6
ENDBRANCH   4   5
ENDBRANCH   3   4
ENDBRANCH   2   3
ENDBRANCH   1   2
BRANCH   1  17
ATOM     17  C   UNL     1      17.615   0.343  18.790  1.00  0.00     0.000 C 
BRANCH  17  18
ATOM     18  C   UNL     1      16.465  -0.416  19.474  1.00  0.00     0.000 C 
BRANCH  18  19
ATOM     19  C   UNL     1      15.546   0.506  20.294  1.00  0.00     0.000 C 
BRANCH  19  20
ATOM     20  C   UNL     1      14.051   0.435  19.924  1.00  0.00     0.000 C 
BRANCH  20  21
ATOM     21  C   UNL     1      13.636   1.309  18.724  1.00  0.00     0.000 C 
BRANCH  21  22
ATOM     22  C   UNL     1      14.105   2.778  18.792  1.00  0.00    -0.000 C 
BRANCH  22  23
ATOM     23  C   UNL     1      14.258   3.481  17.431  1.00  0.00    -0.000 C 
BRANCH  23  24
ATOM     24  C   UNL     1      13.061   3.249  16.497  1.00  0.00    -0.000 C 
BRANCH  24  25
ATOM     25  C   UNL     1      13.473   2.655  15.139  1.00  0.00    -0.000 C 
BRANCH  25  26
ATOM     26  C   UNL     1      14.982   2.790  14.841  1.00  0.00    -0.000 C 
BRANCH  26  27
ATOM     27  C   UNL     1      15.262   2.967  13.339  1.00  0.00    -0.000 C 
BRANCH  27  28
ATOM     28  C   UNL     1      15.059   1.667  12.542  1.00  0.00    -0.000 C 
BRANCH  28  29
ATOM     29  C   UNL     1      15.911   1.617  11.266  1.00  0.00    -0.003 C 
ATOM     30  C   UNL     1      17.240   2.341  11.464  1.00  0.00     0.004 C 
ENDBRANCH  28  29
ENDBRANCH  27  28
ENDBRANCH  26  27
ENDBRANCH  25  26
ENDBRANCH  24  25
ENDBRANCH  23  24
ENDBRANCH  22  23
ENDBRANCH  21  22
ENDBRANCH  20  21
ENDBRANCH  19  20
ENDBRANCH  18  19
ENDBRANCH  17  18
ENDBRANCH   1  17
TORSDOF 26
ENDMDL
MODEL 2
REMARK VINA RESULT:    -5.913      4.591      7.424
REMARK INTER + INTRA:         -18.362
REMARK INTER:                 -15.602
REMARK INTRA:                  -2.760
REMARK UNBOUND:                -3.462
REMARK SMILES CCCCCCCCCCCCCCCCCCCCCCCCCCCC(=O)[O-]
REMARK SMILES IDX 15 1 16 2 17 3 18 4 19 5 20 6 21 7 22 8 23 9 24 10 25 11
REMARK SMILES IDX 26 12 27 13 28 14 29 15 30 16 14 17 13 18 12 19 11 20 10 21
REMARK SMILES IDX 9 22 8 23 7 24 6 25 5 26 4 27 3 28 2 29 1 30
REMARK H PARENT
REMARK Flexibility Score: inf
ROOT
ATOM      1  C   UNL     1      13.113   2.593  15.403  1.00  0.00     0.000 C 
ENDROOT
BRANCH   1   2
ATOM      2  C   UNL     1      14.174   1.974  14.477  1.00  0.00     0.000 C 
BRANCH   2   3
ATOM      3  C   UNL     1      15.298   2.958  14.120  1.00  0.00     0.000 C 
BRANCH   3   4
ATOM      4  C   UNL     1      15.360   3.272  12.618  1.00  0.00     0.000 C 
BRANCH   4   5
ATOM      5  C   UNL     1      15.600   1.995  11.799  1.00  0.00     0.000 C 
BRANCH   5   6
ATOM      6  C   UNL     1      17.097   1.749  11.513  1.00  0.00     0.000 C 
BRANCH   6   7
ATOM      7  C   UNL     1      17.439   1.625  10.015  1.00  0.00     0.000 C 
BRANCH   7   8
ATOM      8  C   UNL     1      17.773   0.201   9.529  1.00  0.00     0.000 C 
BRANCH   8   9
ATOM      9  C   UNL     1      18.133   0.098   8.032  1.00  0.00     0.000 C 
BRANCH   9  10
ATOM     10  C   UNL     1      18.813   1.366   7.468  1.00  0.00     0.000 C 
BRANCH  10  11
ATOM     11  C   UNL     1      19.996   1.065   6.535  1.00  0.00     0.000 C 
BRANCH  11  12
ATOM     12  C   UNL     1      20.685  -0.270   6.862  1.00  0.00     0.006 C 
BRANCH  12  13
ATOM     13  C   UNL     1      22.111  -0.340   6.301  1.00  0.00     0.053 C 
BRANCH  13  14
ATOM     14  C   UNL     1      22.398  -1.671   5.677  1.00  0.00     0.041 C 
ATOM     15  O   UNL     1      21.870  -2.715   6.139  1.00  0.00    -0.550 OA
ATOM     16  O   UNL     1      23.288  -1.764   4.615  1.00  0.00    -0.550 OA
ENDBRANCH  13  14
ENDBRANCH  12  13
ENDBRANCH  11  12
ENDBRANCH  10  11
ENDBRANCH   9  10
ENDBRANCH   8   9
ENDBRANCH   7   8
ENDBRANCH   6   7
ENDBRANCH   5   6
ENDBRANCH   4   5
ENDBRANCH   3   4
ENDBRANCH   2   3
ENDBRANCH   1   2
BRANCH   1  17
ATOM     17  C   UNL     1      13.324   2.196  16.874  1.00  0.00     0.000 C 
BRANCH  17  18
ATOM     18  C   UNL     1      13.611   3.413  17.772  1.00  0.00     0.000 C 
BRANCH  18  19
ATOM     19  C   UNL     1      13.993   3.018  19.209  1.00  0.00     0.000 C 
BRANCH  19  20
ATOM     20  C   UNL     1      14.056   1.501  19.474  1.00  0.00     0.000 C 
BRANCH  20  21
ATOM     21  C   UNL     1      15.335   1.018  20.186  1.00  0.00     0.000 C 
BRANCH  21  22
ATOM     22  C   UNL     1      15.810  -0.395  19.791  1.00  0.00    -0.000 C 
BRANCH  22  23
ATOM     23  C   UNL     1      17.016  -0.440  18.835  1.00  0.00    -0.000 C 
BRANCH  23  24
ATOM     24  C   UNL     1      16.972   0.660  17.763  1.00  0.00    -0.000 C 
BRANCH  24  25
ATOM     25  C   UNL     1      16.114   0.270  16.547  1.00  0.00    -0.000 C 
BRANCH  25  26
ATOM     26  C   UNL     1      16.722  -0.874  15.706  1.00  0.00    -0.000 C 
BRANCH  26  27
ATOM     27  C   UNL     1      17.358  -0.359  14.403  1.00  0.00    -0.000 C 
BRANCH  27  28
ATOM     28  C   UNL     1      18.827  -0.787  14.254  1.00  0.00    -0.000 C 
BRANCH  28  29
ATOM     29  C   UNL     1      19.546  -0.917  15.605  1.00  0.00    -0.003 C 
ATOM     30  C   UNL     1      20.429   0.297  15.876  1.00  0.00     0.004 C 
ENDBRANCH  28  29
ENDBRANCH  27  28
ENDBRANCH  26  27
ENDBRANCH  25  26
ENDBRANCH  24  25
ENDBRANCH  23  24
ENDBRANCH  22  23
ENDBRANCH  21  22
ENDBRANCH  20  21
ENDBRANCH  19  20
ENDBRANCH  18  19
ENDBRANCH  17  18
ENDBRANCH   1  17
TORSDOF 26
ENDMDL
MODEL 3
REMARK VINA RESULT:    -5.829      1.542      2.102
REMARK INTER + INTRA:         -18.150
REMARK INTER:                 -14.957
REMARK INTRA:                  -3.193
REMARK UNBOUND:                -3.462
REMARK SMILES CCCCCCCCCCCCCCCCCCCCCCCCCCCC(=O)[O-]
REMARK SMILES IDX 15 1 16 2 17 3 18 4 19 5 20 6 21 7 22 8 23 9 24 10 25 11
REMARK SMILES IDX 26 12 27 13 28 14 29 15 30 16 14 17 13 18 12 19 11 20 10 21
REMARK SMILES IDX 9 22 8 23 7 24 6 25 5 26 4 27 3 28 2 29 1 30
REMARK H PARENT
REMARK Flexibility Score: inf
ROOT
ATOM      1  C   UNL     1      17.422   0.998  16.725  1.00  0.00     0.000 C 
ENDROOT
BRANCH   1   2
ATOM      2  C   UNL     1      16.894  -0.248  15.992  1.00  0.00     0.000 C 
BRANCH   2   3
ATOM      3  C   UNL     1      17.590  -0.481  14.642  1.00  0.00     0.000 C 
BRANCH   3   4
ATOM      4  C   UNL     1      19.119  -0.368  14.733  1.00  0.00     0.000 C 
BRANCH   4   5
ATOM      5  C   UNL     1      19.741  -1.693  15.199  1.00  0.00     0.000 C 
BRANCH   5   6
ATOM      6  C   UNL     1      21.106  -1.492  15.893  1.00  0.00     0.000 C 
BRANCH   6   7
ATOM      7  C   UNL     1      22.079  -2.675  15.720  1.00  0.00     0.000 C 
BRANCH   7   8
ATOM      8  C   UNL     1      23.202  -2.768  16.773  1.00  0.00     0.000 C 
BRANCH   8   9
ATOM      9  C   UNL     1      24.625  -2.894  16.189  1.00  0.00     0.000 C 
BRANCH   9  10
ATOM     10  C   UNL     1      24.919  -1.897  15.046  1.00  0.00     0.000 C 
BRANCH  10  11
ATOM     11  C   UNL     1      25.617  -0.611  15.517  1.00  0.00     0.000 C 
BRANCH  11  12
ATOM     12  C   UNL     1      24.682   0.609  15.510  1.00  0.00     0.006 C 
BRANCH  12  13
ATOM     13  C   UNL     1      25.220   1.758  16.372  1.00  0.00     0.053 C 
BRANCH  13  14
ATOM     14  C   UNL     1      24.122   2.666  16.835  1.00  0.00     0.041 C 
ATOM     15  O   UNL     1      24.346   3.533  17.719  1.00  0.00    -0.550 OA
ATOM     16  O   UNL     1      22.839   2.521  16.324  1.00  0.00    -0.550 OA
ENDBRANCH  13  14
ENDBRANCH  12  13
ENDBRANCH  11  12
ENDBRANCH  10  11
ENDBRANCH   9  10
ENDBRANCH   8   9
ENDBRANCH   7   8
ENDBRANCH   6   7
ENDBRANCH   5   6
ENDBRANCH   4   5
ENDBRANCH   3   4
ENDBRANCH   2   3
ENDBRANCH   1   2
BRANCH   1  17
ATOM     17  C   UNL     1      17.736   0.711  18.204  1.00  0.00     0.000 C 
BRANCH  17  18
ATOM     18  C   UNL     1      17.486  -0.761  18.578  1.00  0.00     0.000 C 
BRANCH  18  19
ATOM     19  C   UNL     1      16.293  -0.941  19.532  1.00  0.00     0.000 C 
BRANCH  19  20
ATOM     20  C   UNL     1      15.662   0.370  20.041  1.00  0.00     0.000 C 
BRANCH  20  21
ATOM     21  C   UNL     1      14.131   0.457  19.888  1.00  0.00     0.000 C 
BRANCH  21  22
ATOM     22  C   UNL     1      13.640   1.075  18.562  1.00  0.00    -0.000 C 
BRANCH  22  23
ATOM     23  C   UNL     1      14.168   2.488  18.261  1.00  0.00    -0.000 C 
BRANCH  23  24
ATOM     24  C   UNL     1      13.178   3.340  17.452  1.00  0.00    -0.000 C 
BRANCH  24  25
ATOM     25  C   UNL     1      13.146   2.958  15.962  1.00  0.00    -0.000 C 
BRANCH  25  26
ATOM     26  C   UNL     1      14.541   2.654  15.374  1.00  0.00    -0.000 C 
BRANCH  26  27
ATOM     27  C   UNL     1      14.453   1.993  13.988  1.00  0.00    -0.000 C 
BRANCH  27  28
ATOM     28  C   UNL     1      15.316   2.708  12.936  1.00  0.00    -0.000 C 
BRANCH  28  29
ATOM     29  C   UNL     1      15.693   1.795  11.760  1.00  0.00    -0.003 C 
ATOM     30  C   UNL     1      17.161   1.964  11.382  1.00  0.00     0.004 C 
ENDBRANCH  28  29
ENDBRANCH  27  28
ENDBRANCH  26  27
ENDBRANCH  25  26
ENDBRANCH  24  25
ENDBRANCH  23  24
ENDBRANCH  22  23
ENDBRANCH  21  22
ENDBRANCH  20  21
ENDBRANCH  19  20
ENDBRANCH  18  19
ENDBRANCH  17  18
ENDBRANCH   1  17
TORSDOF 26
ENDMDL
MODEL 4
REMARK VINA RESULT:    -5.796      1.678      2.017
REMARK INTER + INTRA:         -18.069
REMARK INTER:                 -14.952
REMARK INTRA:                  -3.117
REMARK UNBOUND:                -3.462
REMARK SMILES CCCCCCCCCCCCCCCCCCCCCCCCCCCC(=O)[O-]
REMARK SMILES IDX 15 1 16 2 17 3 18 4 19 5 20 6 21 7 22 8 23 9 24 10 25 11
REMARK SMILES IDX 26 12 27 13 28 14 29 15 30 16 14 17 13 18 12 19 11 20 10 21
REMARK SMILES IDX 9 22 8 23 7 24 6 25 5 26 4 27 3 28 2 29 1 30
REMARK H PARENT
REMARK Flexibility Score: inf
ROOT
ATOM      1  C   UNL     1      17.233   0.970  17.100  1.00  0.00     0.000 C 
ENDROOT
BRANCH   1   2
ATOM      2  C   UNL     1      16.909  -0.143  16.089  1.00  0.00     0.000 C 
BRANCH   2   3
ATOM      3  C   UNL     1      17.395   0.186  14.669  1.00  0.00     0.000 C 
BRANCH   3   4
ATOM      4  C   UNL     1      18.551  -0.717  14.211  1.00  0.00     0.000 C 
BRANCH   4   5
ATOM      5  C   UNL     1      19.089  -1.556  15.380  1.00  0.00     0.000 C 
BRANCH   5   6
ATOM      6  C   UNL     1      20.493  -1.102  15.835  1.00  0.00     0.000 C 
BRANCH   6   7
ATOM      7  C   UNL     1      20.672   0.428  15.888  1.00  0.00     0.000 C 
BRANCH   7   8
ATOM      8  C   UNL     1      22.105   0.916  16.185  1.00  0.00     0.000 C 
BRANCH   8   9
ATOM      9  C   UNL     1      23.175  -0.195  16.201  1.00  0.00     0.000 C 
BRANCH   9  10
ATOM     10  C   UNL     1      24.622   0.336  16.311  1.00  0.00     0.000 C 
BRANCH  10  11
ATOM     11  C   UNL     1      25.395   0.290  14.984  1.00  0.00     0.000 C 
BRANCH  11  12
ATOM     12  C   UNL     1      26.911   0.135  15.186  1.00  0.00     0.006 C 
BRANCH  12  13
ATOM     13  C   UNL     1      27.342  -1.337  15.238  1.00  0.00     0.053 C 
BRANCH  13  14
ATOM     14  C   UNL     1      27.445  -1.835  16.647  1.00  0.00     0.041 C 
ATOM     15  O   UNL     1      27.312  -3.061  16.898  1.00  0.00    -0.550 OA
ATOM     16  O   UNL     1      27.640  -0.938  17.689  1.00  0.00    -0.550 OA
ENDBRANCH  13  14
ENDBRANCH  12  13
ENDBRANCH  11  12
ENDBRANCH  10  11
ENDBRANCH   9  10
ENDBRANCH   8   9
ENDBRANCH   7   8
ENDBRANCH   6   7
ENDBRANCH   5   6
ENDBRANCH   4   5
ENDBRANCH   3   4
ENDBRANCH   2   3
ENDBRANCH   1   2
BRANCH   1  17
ATOM     17  C   UNL     1      17.700   0.406  18.454  1.00  0.00     0.000 C 
BRANCH  17  18
ATOM     18  C   UNL     1      16.936  -0.871  18.847  1.00  0.00     0.000 C 
BRANCH  18  19
ATOM     19  C   UNL     1      15.927  -0.637  19.985  1.00  0.00     0.000 C 
BRANCH  19  20
ATOM     20  C   UNL     1      14.653   0.131  19.579  1.00  0.00     0.000 C 
BRANCH  20  21
ATOM     21  C   UNL     1      14.595   1.594  20.060  1.00  0.00     0.000 C 
BRANCH  21  22
ATOM     22  C   UNL     1      14.257   2.630  18.968  1.00  0.00    -0.000 C 
BRANCH  22  23
ATOM     23  C   UNL     1      13.625   2.053  17.689  1.00  0.00    -0.000 C 
BRANCH  23  24
ATOM     24  C   UNL     1      12.975   3.128  16.804  1.00  0.00    -0.000 C 
BRANCH  24  25
ATOM     25  C   UNL     1      13.240   2.901  15.305  1.00  0.00    -0.000 C 
BRANCH  25  26
ATOM     26  C   UNL     1      14.708   2.546  14.985  1.00  0.00    -0.000 C 
BRANCH  26  27
ATOM     27  C   UNL     1      15.109   2.968  13.561  1.00  0.00    -0.000 C 
BRANCH  27  28
ATOM     28  C   UNL     1      15.186   1.778  12.591  1.00  0.00    -0.000 C 
BRANCH  28  29
ATOM     29  C   UNL     1      15.919   2.125  11.287  1.00  0.00    -0.003 C 
ATOM     30  C   UNL     1      17.258   1.400  11.200  1.00  0.00     0.004 C 
ENDBRANCH  28  29
ENDBRANCH  27  28
ENDBRANCH  26  27
ENDBRANCH  25  26
ENDBRANCH  24  25
ENDBRANCH  23  24
ENDBRANCH  22  23
ENDBRANCH  21  22
ENDBRANCH  20  21
ENDBRANCH  19  20
ENDBRANCH  18  19
ENDBRANCH  17  18
ENDBRANCH   1  17
TORSDOF 26
ENDMDL
MODEL 5
REMARK VINA RESULT:    -5.716      7.841     13.498
REMARK INTER + INTRA:         -17.867
REMARK INTER:                 -16.077
REMARK INTRA:                  -1.790
REMARK UNBOUND:                -3.462
REMARK SMILES CCCCCCCCCCCCCCCCCCCCCCCCCCCC(=O)[O-]
REMARK SMILES IDX 15 1 16 2 17 3 18 4 19 5 20 6 21 7 22 8 23 9 24 10 25 11
REMARK SMILES IDX 26 12 27 13 28 14 29 15 30 16 14 17 13 18 12 19 11 20 10 21
REMARK SMILES IDX 9 22 8 23 7 24 6 25 5 26 4 27 3 28 2 29 1 30
REMARK H PARENT
REMARK Flexibility Score: inf
ROOT
ATOM      1  C   UNL     1      21.134  -0.870   6.692  1.00  0.00     0.000 C 
ENDROOT
BRANCH   1   2
ATOM      2  C   UNL     1      20.929   0.650   6.573  1.00  0.00     0.000 C 
BRANCH   2   3
ATOM      3  C   UNL     1      19.489   1.082   6.893  1.00  0.00     0.000 C 
BRANCH   3   4
ATOM      4  C   UNL     1      18.801   0.157   7.908  1.00  0.00     0.000 C 
BRANCH   4   5
ATOM      5  C   UNL     1      17.838   0.947   8.807  1.00  0.00     0.000 C 
BRANCH   5   6
ATOM      6  C   UNL     1      17.403   0.147  10.053  1.00  0.00     0.000 C 
BRANCH   6   7
ATOM      7  C   UNL     1      17.260   1.000  11.330  1.00  0.00     0.000 C 
BRANCH   7   8
ATOM      8  C   UNL     1      16.379   2.257  11.190  1.00  0.00     0.000 C 
BRANCH   8   9
ATOM      9  C   UNL     1      15.497   2.567  12.417  1.00  0.00     0.000 C 
BRANCH   9  10
ATOM     10  C   UNL     1      15.371   1.386  13.406  1.00  0.00     0.000 C 
BRANCH  10  11
ATOM     11  C   UNL     1      15.337   1.820  14.880  1.00  0.00     0.000 C 
BRANCH  11  12
ATOM     12  C   UNL     1      15.612   0.657  15.847  1.00  0.00     0.006 C 
BRANCH  12  13
ATOM     13  C   UNL     1      17.030   0.093  15.689  1.00  0.00     0.053 C 
BRANCH  13  14
ATOM     14  C   UNL     1      17.127  -1.314  16.194  1.00  0.00     0.041 C 
ATOM     15  O   UNL     1      16.104  -1.905  16.626  1.00  0.00    -0.550 OA
ATOM     16  O   UNL     1      18.358  -1.955  16.233  1.00  0.00    -0.550 OA
ENDBRANCH  13  14
ENDBRANCH  12  13
ENDBRANCH  11  12
ENDBRANCH  10  11
ENDBRANCH   9  10
ENDBRANCH   8   9
ENDBRANCH   7   8
ENDBRANCH   6   7
ENDBRANCH   5   6
ENDBRANCH   4   5
ENDBRANCH   3   4
ENDBRANCH   2   3
ENDBRANCH   1   2
BRANCH   1  17
ATOM     17  C   UNL     1      22.234  -1.382   5.747  1.00  0.00     0.000 C 
BRANCH  17  18
ATOM     18  C   UNL     1      23.473  -0.469   5.746  1.00  0.00     0.000 C 
BRANCH  18  19
ATOM     19  C   UNL     1      24.769  -1.220   5.394  1.00  0.00     0.000 C 
BRANCH  19  20
ATOM     20  C   UNL     1      25.986  -0.869   6.272  1.00  0.00     0.000 C 
BRANCH  20  21
ATOM     21  C   UNL     1      26.975  -2.027   6.507  1.00  0.00     0.000 C 
BRANCH  21  22
ATOM     22  C   UNL     1      28.227  -2.013   5.606  1.00  0.00    -0.000 C 
BRANCH  22  23
ATOM     23  C   UNL     1      29.461  -2.728   6.184  1.00  0.00    -0.000 C 
BRANCH  23  24
ATOM     24  C   UNL     1      30.724  -1.855   6.166  1.00  0.00    -0.000 C 
BRANCH  24  25
ATOM     25  C   UNL     1      31.480  -1.877   7.506  1.00  0.00    -0.000 C 
BRANCH  25  26
ATOM     26  C   UNL     1      30.944  -0.857   8.533  1.00  0.00    -0.000 C 
BRANCH  26  27
ATOM     27  C   UNL     1      30.280   0.354   7.854  1.00  0.00    -0.000 C 
BRANCH  27  28
ATOM     28  C   UNL     1      28.828   0.566   8.313  1.00  0.00    -0.000 C 
BRANCH  28  29
ATOM     29  C   UNL     1      28.677   0.520   9.840  1.00  0.00    -0.003 C 
ATOM     30  C   UNL     1      28.600   1.926  10.427  1.00  0.00     0.004 C 
ENDBRANCH  28  29
ENDBRANCH  27  28
ENDBRANCH  26  27
ENDBRANCH  25  26
ENDBRANCH  24  25
ENDBRANCH  23  24
ENDBRANCH  22  23
ENDBRANCH  21  22
ENDBRANCH  20  21
ENDBRANCH  19  20
ENDBRANCH  18  19
ENDBRANCH  17  18
ENDBRANCH   1  17
TORSDOF 26
ENDMDL
MODEL 6
REMARK VINA RESULT:    -5.716      2.882      3.637
REMARK INTER + INTRA:         -17.866
REMARK INTER:                 -14.985
REMARK INTRA:                  -2.882
REMARK UNBOUND:                -3.462
REMARK SMILES CCCCCCCCCCCCCCCCCCCCCCCCCCCC(=O)[O-]
REMARK SMILES IDX 15 1 16 2 17 3 18 4 19 5 20 6 21 7 22 8 23 9 24 10 25 11
REMARK SMILES IDX 26 12 27 13 28 14 29 15 30 16 14 17 13 18 12 19 11 20 10 21
REMARK SMILES IDX 9 22 8 23 7 24 6 25 5 26 4 27 3 28 2 29 1 30
REMARK H PARENT
REMARK Flexibility Score: inf
ROOT
ATOM      1  C   UNL     1      17.802   0.023  18.313  1.00  0.00     0.000 C 
ENDROOT
BRANCH   1   2
ATOM      2  C   UNL     1      16.897   0.163  17.077  1.00  0.00     0.000 C 
BRANCH   2   3
ATOM      3  C   UNL     1      17.139  -0.939  16.035  1.00  0.00     0.000 C 
BRANCH   3   4
ATOM      4  C   UNL     1      17.693  -0.395  14.710  1.00  0.00     0.000 C 
BRANCH   4   5
ATOM      5  C   UNL     1      19.108  -0.931  14.444  1.00  0.00     0.000 C 
BRANCH   5   6
ATOM      6  C   UNL     1      19.535  -2.004  15.469  1.00  0.00     0.000 C 
BRANCH   6   7
ATOM      7  C   UNL     1      21.060  -2.204  15.571  1.00  0.00     0.000 C 
BRANCH   7   8
ATOM      8  C   UNL     1      21.847  -1.012  16.150  1.00  0.00     0.000 C 
BRANCH   8   9
ATOM      9  C   UNL     1      23.377  -1.097  15.965  1.00  0.00     0.000 C 
BRANCH   9  10
ATOM     10  C   UNL     1      24.112  -1.750  17.157  1.00  0.00     0.000 C 
BRANCH  10  11
ATOM     11  C   UNL     1      24.130  -3.285  17.100  1.00  0.00     0.000 C 
BRANCH  11  12
ATOM     12  C   UNL     1      25.308  -3.894  17.877  1.00  0.00     0.006 C 
BRANCH  12  13
ATOM     13  C   UNL     1      25.044  -5.349  18.286  1.00  0.00     0.053 C 
BRANCH  13  14
ATOM     14  C   UNL     1      26.231  -6.224  18.021  1.00  0.00     0.041 C 
ATOM     15  O   UNL     1      27.378  -5.720  17.908  1.00  0.00    -0.550 OA
ATOM     16  O   UNL     1      26.061  -7.592  17.850  1.00  0.00    -0.550 OA
ENDBRANCH  13  14
ENDBRANCH  12  13
ENDBRANCH  11  12
ENDBRANCH  10  11
ENDBRANCH   9  10
ENDBRANCH   8   9
ENDBRANCH   7   8
ENDBRANCH   6   7
ENDBRANCH   5   6
ENDBRANCH   4   5
ENDBRANCH   3   4
ENDBRANCH   2   3
ENDBRANCH   1   2
BRANCH   1  17
ATOM     17  C   UNL     1      17.056   0.350  19.618  1.00  0.00     0.000 C 
BRANCH  17  18
ATOM     18  C   UNL     1      15.913  -0.641  19.901  1.00  0.00     0.000 C 
BRANCH  18  19
ATOM     19  C   UNL     1      14.674   0.036  20.513  1.00  0.00     0.000 C 
BRANCH  19  20
ATOM     20  C   UNL     1      14.414   1.477  20.033  1.00  0.00     0.000 C 
BRANCH  20  21
ATOM     21  C   UNL     1      13.634   1.591  18.709  1.00  0.00     0.000 C 
BRANCH  21  22
ATOM     22  C   UNL     1      13.102   3.002  18.381  1.00  0.00    -0.000 C 
BRANCH  22  23
ATOM     23  C   UNL     1      13.565   3.582  17.034  1.00  0.00    -0.000 C 
BRANCH  23  24
ATOM     24  C   UNL     1      15.044   3.294  16.733  1.00  0.00    -0.000 C 
BRANCH  24  25
ATOM     25  C   UNL     1      15.302   3.011  15.243  1.00  0.00    -0.000 C 
BRANCH  25  26
ATOM     26  C   UNL     1      14.710   1.669  14.760  1.00  0.00    -0.000 C 
BRANCH  26  27
ATOM     27  C   UNL     1      14.702   1.559  13.225  1.00  0.00    -0.000 C 
BRANCH  27  28
ATOM     28  C   UNL     1      15.823   2.379  12.567  1.00  0.00    -0.000 C 
BRANCH  28  29
ATOM     29  C   UNL     1      16.174   1.878  11.158  1.00  0.00    -0.003 C 
ATOM     30  C   UNL     1      17.291   0.840  11.207  1.00  0.00     0.004 C 
ENDBRANCH  28  29
ENDBRANCH  27  28
ENDBRANCH  26  27
ENDBRANCH  25  26
ENDBRANCH  24  25
ENDBRANCH  23  24
ENDBRANCH  22  23
ENDBRANCH  21  22
ENDBRANCH  20  21
ENDBRANCH  19  20
ENDBRANCH  18  19
ENDBRANCH  17  18
ENDBRANCH   1  17
TORSDOF 26
ENDMDL
MODEL 7
REMARK VINA RESULT:    -5.648      3.215      8.794
REMARK INTER + INTRA:         -17.696
REMARK INTER:                 -14.844
REMARK INTRA:                  -2.852
REMARK UNBOUND:                -3.462
REMARK SMILES CCCCCCCCCCCCCCCCCCCCCCCCCCCC(=O)[O-]
REMARK SMILES IDX 15 1 16 2 17 3 18 4 19 5 20 6 21 7 22 8 23 9 24 10 25 11
REMARK SMILES IDX 26 12 27 13 28 14 29 15 30 16 14 17 13 18 12 19 11 20 10 21
REMARK SMILES IDX 9 22 8 23 7 24 6 25 5 26 4 27 3 28 2 29 1 30
REMARK H PARENT
REMARK Flexibility Score: inf
ROOT
ATOM      1  C   UNL     1      17.168  -1.134  18.893  1.00  0.00     0.000 C 
ENDROOT
BRANCH   1   2
ATOM      2  C   UNL     1      15.634  -1.007  18.899  1.00  0.00     0.000 C 
BRANCH   2   3
ATOM      3  C   UNL     1      15.106  -0.249  20.128  1.00  0.00     0.000 C 
BRANCH   3   4
ATOM      4  C   UNL     1      13.951   0.704  19.788  1.00  0.00     0.000 C 
BRANCH   4   5
ATOM      5  C   UNL     1      14.461   2.142  19.603  1.00  0.00     0.000 C 
BRANCH   5   6
ATOM      6  C   UNL     1      13.503   3.003  18.754  1.00  0.00     0.000 C 
BRANCH   6   7
ATOM      7  C   UNL     1      14.216   3.945  17.763  1.00  0.00     0.000 C 
BRANCH   7   8
ATOM      8  C   UNL     1      15.128   3.253  16.731  1.00  0.00     0.000 C 
BRANCH   8   9
ATOM      9  C   UNL     1      14.511   2.010  16.056  1.00  0.00     0.000 C 
BRANCH   9  10
ATOM     10  C   UNL     1      13.985   2.276  14.627  1.00  0.00     0.000 C 
BRANCH  10  11
ATOM     11  C   UNL     1      14.721   1.473  13.543  1.00  0.00     0.000 C 
BRANCH  11  12
ATOM     12  C   UNL     1      15.785   2.304  12.809  1.00  0.00     0.006 C 
BRANCH  12  13
ATOM     13  C   UNL     1      15.899   1.924  11.327  1.00  0.00     0.053 C 
BRANCH  13  14
ATOM     14  C   UNL     1      17.185   1.215  11.032  1.00  0.00     0.041 C 
ATOM     15  O   UNL     1      17.518   0.973   9.843  1.00  0.00    -0.550 OA
ATOM     16  O   UNL     1      17.992   0.779  12.075  1.00  0.00    -0.550 OA
ENDBRANCH  13  14
ENDBRANCH  12  13
ENDBRANCH  11  12
ENDBRANCH  10  11
ENDBRANCH   9  10
ENDBRANCH   8   9
ENDBRANCH   7   8
ENDBRANCH   6   7
ENDBRANCH   5   6
ENDBRANCH   4   5
ENDBRANCH   3   4
ENDBRANCH   2   3
ENDBRANCH   1   2
BRANCH   1  17
ATOM     17  C   UNL     1      17.863   0.233  19.014  1.00  0.00     0.000 C 
BRANCH  17  18
ATOM     18  C   UNL     1      17.645   1.110  17.768  1.00  0.00     0.000 C 
BRANCH  18  19
ATOM     19  C   UNL     1      18.610   0.765  16.619  1.00  0.00     0.000 C 
BRANCH  19  20
ATOM     20  C   UNL     1      18.034  -0.176  15.543  1.00  0.00     0.000 C 
BRANCH  20  21
ATOM     21  C   UNL     1      19.076  -1.049  14.818  1.00  0.00     0.000 C 
BRANCH  21  22
ATOM     22  C   UNL     1      19.942  -1.936  15.737  1.00  0.00    -0.000 C 
BRANCH  22  23
ATOM     23  C   UNL     1      21.417  -1.514  15.856  1.00  0.00    -0.000 C 
BRANCH  23  24
ATOM     24  C   UNL     1      22.384  -2.708  15.852  1.00  0.00    -0.000 C 
BRANCH  24  25
ATOM     25  C   UNL     1      23.861  -2.276  15.834  1.00  0.00    -0.000 C 
BRANCH  25  26
ATOM     26  C   UNL     1      24.388  -1.827  17.214  1.00  0.00    -0.000 C 
BRANCH  26  27
ATOM     27  C   UNL     1      24.777  -0.338  17.229  1.00  0.00    -0.000 C 
BRANCH  27  28
ATOM     28  C   UNL     1      24.659   0.318  15.843  1.00  0.00    -0.000 C 
BRANCH  28  29
ATOM     29  C   UNL     1      25.086   1.793  15.850  1.00  0.00    -0.003 C 
ATOM     30  C   UNL     1      25.991   2.108  14.663  1.00  0.00     0.004 C 
ENDBRANCH  28  29
ENDBRANCH  27  28
ENDBRANCH  26  27
ENDBRANCH  25  26
ENDBRANCH  24  25
ENDBRANCH  23  24
ENDBRANCH  22  23
ENDBRANCH  21  22
ENDBRANCH  20  21
ENDBRANCH  19  20
ENDBRANCH  18  19
ENDBRANCH  17  18
ENDBRANCH   1  17
TORSDOF 26
ENDMDL
MODEL 8
REMARK VINA RESULT:    -5.641      1.635      2.296
REMARK INTER + INTRA:         -17.678
REMARK INTER:                 -14.513
REMARK INTRA:                  -3.165
REMARK UNBOUND:                -3.462
REMARK SMILES CCCCCCCCCCCCCCCCCCCCCCCCCCCC(=O)[O-]
REMARK SMILES IDX 15 1 16 2 17 3 18 4 19 5 20 6 21 7 22 8 23 9 24 10 25 11
REMARK SMILES IDX 26 12 27 13 28 14 29 15 30 16 14 17 13 18 12 19 11 20 10 21
REMARK SMILES IDX 9 22 8 23 7 24 6 25 5 26 4 27 3 28 2 29 1 30
REMARK H PARENT
REMARK Flexibility Score: inf
ROOT
ATOM      1  C   UNL     1      16.273  -1.165  19.493  1.00  0.00     0.000 C 
ENDROOT
BRANCH   1   2
ATOM      2  C   UNL     1      17.190  -1.763  18.413  1.00  0.00     0.000 C 
BRANCH   2   3
ATOM      3  C   UNL     1      16.467  -1.982  17.075  1.00  0.00     0.000 C 
BRANCH   3   4
ATOM      4  C   UNL     1      16.913  -0.993  15.988  1.00  0.00     0.000 C 
BRANCH   4   5
ATOM      5  C   UNL     1      18.166  -0.221  16.427  1.00  0.00     0.000 C 
BRANCH   5   6
ATOM      6  C   UNL     1      19.296  -0.284  15.378  1.00  0.00     0.000 C 
BRANCH   6   7
ATOM      7  C   UNL     1      19.571  -1.700  14.833  1.00  0.00     0.000 C 
BRANCH   7   8
ATOM      8  C   UNL     1      20.760  -2.438  15.479  1.00  0.00     0.000 C 
BRANCH   8   9
ATOM      9  C   UNL     1      21.766  -1.525  16.211  1.00  0.00     0.000 C 
BRANCH   9  10
ATOM     10  C   UNL     1      23.243  -1.904  15.964  1.00  0.00     0.000 C 
BRANCH  10  11
ATOM     11  C   UNL     1      24.241  -0.988  16.690  1.00  0.00     0.000 C 
BRANCH  11  12
ATOM     12  C   UNL     1      24.569   0.283  15.891  1.00  0.00     0.006 C 
BRANCH  12  13
ATOM     13  C   UNL     1      26.023   0.304  15.402  1.00  0.00     0.053 C 
BRANCH  13  14
ATOM     14  C   UNL     1      26.367   1.602  14.738  1.00  0.00     0.041 C 
ATOM     15  O   UNL     1      27.564   1.877  14.465  1.00  0.00    -0.550 OA
ATOM     16  O   UNL     1      25.369   2.528  14.464  1.00  0.00    -0.550 OA
ENDBRANCH  13  14
ENDBRANCH  12  13
ENDBRANCH  11  12
ENDBRANCH  10  11
ENDBRANCH   9  10
ENDBRANCH   8   9
ENDBRANCH   7   8
ENDBRANCH   6   7
ENDBRANCH   5   6
ENDBRANCH   4   5
ENDBRANCH   3   4
ENDBRANCH   2   3
ENDBRANCH   1   2
BRANCH   1  17
ATOM     17  C   UNL     1      16.498   0.346  19.674  1.00  0.00     0.000 C 
BRANCH  17  18
ATOM     18  C   UNL     1      15.190   1.101  19.969  1.00  0.00     0.000 C 
BRANCH  18  19
ATOM     19  C   UNL     1      14.040   0.692  19.031  1.00  0.00     0.000 C 
BRANCH  19  20
ATOM     20  C   UNL     1      13.364   1.857  18.282  1.00  0.00     0.000 C 
BRANCH  20  21
ATOM     21  C   UNL     1      14.081   3.215  18.410  1.00  0.00     0.000 C 
BRANCH  21  22
ATOM     22  C   UNL     1      14.870   3.660  17.161  1.00  0.00    -0.000 C 
BRANCH  22  23
ATOM     23  C   UNL     1      15.961   2.681  16.692  1.00  0.00    -0.000 C 
BRANCH  23  24
ATOM     24  C   UNL     1      15.633   2.017  15.346  1.00  0.00    -0.000 C 
BRANCH  24  25
ATOM     25  C   UNL     1      14.519   2.750  14.579  1.00  0.00    -0.000 C 
BRANCH  25  26
ATOM     26  C   UNL     1      15.000   3.393  13.260  1.00  0.00    -0.000 C 
BRANCH  26  27
ATOM     27  C   UNL     1      16.227   2.671  12.677  1.00  0.00    -0.000 C 
BRANCH  27  28
ATOM     28  C   UNL     1      15.878   1.805  11.456  1.00  0.00    -0.000 C 
BRANCH  28  29
ATOM     29  C   UNL     1      17.063   0.953  10.977  1.00  0.00    -0.003 C 
ATOM     30  C   UNL     1      17.758   0.271  12.151  1.00  0.00     0.004 C 
ENDBRANCH  28  29
ENDBRANCH  27  28
ENDBRANCH  26  27
ENDBRANCH  25  26
ENDBRANCH  24  25
ENDBRANCH  23  24
ENDBRANCH  22  23
ENDBRANCH  21  22
ENDBRANCH  20  21
ENDBRANCH  19  20
ENDBRANCH  18  19
ENDBRANCH  17  18
ENDBRANCH   1  17
TORSDOF 26
ENDMDL
MODEL 9
REMARK VINA RESULT:    -5.607      8.304     14.205
REMARK INTER + INTRA:         -17.592
REMARK INTER:                 -15.942
REMARK INTRA:                  -1.651
REMARK UNBOUND:                -3.462
REMARK SMILES CCCCCCCCCCCCCCCCCCCCCCCCCCCC(=O)[O-]
REMARK SMILES IDX 15 1 16 2 17 3 18 4 19 5 20 6 21 7 22 8 23 9 24 10 25 11
REMARK SMILES IDX 26 12 27 13 28 14 29 15 30 16 14 17 13 18 12 19 11 20 10 21
REMARK SMILES IDX 9 22 8 23 7 24 6 25 5 26 4 27 3 28 2 29 1 30
REMARK H PARENT
REMARK Flexibility Score: inf
ROOT
ATOM      1  C   UNL     1      23.356  -0.467   5.732  1.00  0.00     0.000 C 
ENDROOT
BRANCH   1   2
ATOM      2  C   UNL     1      22.024  -1.236   5.767  1.00  0.00     0.000 C 
BRANCH   2   3
ATOM      3  C   UNL     1      21.076  -0.733   6.867  1.00  0.00     0.000 C 
BRANCH   3   4
ATOM      4  C   UNL     1      20.872   0.788   6.828  1.00  0.00     0.000 C 
BRANCH   4   5
ATOM      5  C   UNL     1      19.380   1.145   6.916  1.00  0.00     0.000 C 
BRANCH   5   6
ATOM      6  C   UNL     1      18.632   0.298   7.969  1.00  0.00     0.000 C 
BRANCH   6   7
ATOM      7  C   UNL     1      17.742   1.121   8.920  1.00  0.00     0.000 C 
BRANCH   7   8
ATOM      8  C   UNL     1      17.545   0.521  10.327  1.00  0.00     0.000 C 
BRANCH   8   9
ATOM      9  C   UNL     1      17.317   1.559  11.445  1.00  0.00     0.000 C 
BRANCH   9  10
ATOM     10  C   UNL     1      15.899   2.175  11.442  1.00  0.00     0.000 C 
BRANCH  10  11
ATOM     11  C   UNL     1      15.447   2.680  12.821  1.00  0.00     0.000 C 
BRANCH  11  12
ATOM     12  C   UNL     1      15.731   1.672  13.945  1.00  0.00     0.006 C 
BRANCH  12  13
ATOM     13  C   UNL     1      15.432   2.251  15.334  1.00  0.00     0.053 C 
BRANCH  13  14
ATOM     14  C   UNL     1      16.194   1.539  16.409  1.00  0.00     0.041 C 
ATOM     15  O   UNL     1      17.242   0.902  16.127  1.00  0.00    -0.550 OA
ATOM     16  O   UNL     1      15.719   1.539  17.714  1.00  0.00    -0.550 OA
ENDBRANCH  13  14
ENDBRANCH  12  13
ENDBRANCH  11  12
ENDBRANCH  10  11
ENDBRANCH   9  10
ENDBRANCH   8   9
ENDBRANCH   7   8
ENDBRANCH   6   7
ENDBRANCH   5   6
ENDBRANCH   4   5
ENDBRANCH   3   4
ENDBRANCH   2   3
ENDBRANCH   1   2
BRANCH   1  17
ATOM     17  C   UNL     1      24.571  -1.411   5.727  1.00  0.00     0.000 C 
BRANCH  17  18
ATOM     18  C   UNL     1      25.882  -0.676   6.059  1.00  0.00     0.000 C 
BRANCH  18  19
ATOM     19  C   UNL     1      26.961  -1.609   6.634  1.00  0.00     0.000 C 
BRANCH  19  20
ATOM     20  C   UNL     1      28.317  -1.567   5.903  1.00  0.00     0.000 C 
BRANCH  20  21
ATOM     21  C   UNL     1      29.050  -2.920   5.815  1.00  0.00     0.000 C 
BRANCH  21  22
ATOM     22  C   UNL     1      30.331  -3.028   6.667  1.00  0.00    -0.000 C 
BRANCH  22  23
ATOM     23  C   UNL     1      31.334  -1.873   6.496  1.00  0.00    -0.000 C 
BRANCH  23  24
ATOM     24  C   UNL     1      32.495  -1.933   7.499  1.00  0.00    -0.000 C 
BRANCH  24  25
ATOM     25  C   UNL     1      32.616  -0.653   8.345  1.00  0.00    -0.000 C 
BRANCH  25  26
ATOM     26  C   UNL     1      31.600  -0.583   9.505  1.00  0.00    -0.000 C 
BRANCH  26  27
ATOM     27  C   UNL     1      30.693   0.656   9.406  1.00  0.00    -0.000 C 
BRANCH  27  28
ATOM     28  C   UNL     1      29.436   0.403   8.557  1.00  0.00    -0.000 C 
BRANCH  28  29
ATOM     29  C   UNL     1      28.199   1.133   9.101  1.00  0.00    -0.003 C 
ATOM     30  C   UNL     1      28.553   1.982  10.318  1.00  0.00     0.004 C 
ENDBRANCH  28  29
ENDBRANCH  27  28
ENDBRANCH  26  27
ENDBRANCH  25  26
ENDBRANCH  24  25
ENDBRANCH  23  24
ENDBRANCH  22  23
ENDBRANCH  21  22
ENDBRANCH  20  21
ENDBRANCH  19  20
ENDBRANCH  18  19
ENDBRANCH  17  18
ENDBRANCH   1  17
TORSDOF 26
ENDMDL
