MODEL 1
REMARK VINA RESULT:    -4.872      0.000      0.000
REMARK INTER + INTRA:         -17.583
REMARK INTER:                 -12.848
REMARK INTRA:                  -4.735
REMARK UNBOUND:                -4.735
REMARK SMILES CCCCCCCCCCCCCCCCCCCCCCCCCCCCCC(=O)[O-]
REMARK SMILES IDX 16 1 17 2 18 3 19 4 20 5 21 6 22 7 23 8 24 9 25 10 26 11
REMARK SMILES IDX 27 12 28 13 29 14 30 15 31 16 32 17 15 18 14 19 13 20 12 21
REMARK SMILES IDX 11 22 10 23 9 24 8 25 7 26 6 27 5 28 4 29 3 30 2 31 1 32
REMARK H PARENT
REMARK Flexibility Score: inf
ROOT
ATOM      1  C   UNL     1     -17.349 -28.952  19.632  1.00  0.00     0.000 C 
ENDROOT
BRANCH   1   2
ATOM      2  C   UNL     1     -16.258 -27.864  19.695  1.00  0.00     0.000 C 
BRANCH   2   3
ATOM      3  C   UNL     1     -15.516 -27.695  18.360  1.00  0.00     0.000 C 
BRANCH   3   4
ATOM      4  C   UNL     1     -14.097 -28.284  18.389  1.00  0.00     0.000 C 
BRANCH   4   5
ATOM      5  C   UNL     1     -14.133 -29.797  18.133  1.00  0.00     0.000 C 
BRANCH   5   6
ATOM      6  C   UNL     1     -13.316 -30.210  16.899  1.00  0.00     0.000 C 
BRANCH   6   7
ATOM      7  C   UNL     1     -12.124 -31.118  17.249  1.00  0.00     0.000 C 
BRANCH   7   8
ATOM      8  C   UNL     1     -11.418 -30.674  18.549  1.00  0.00     0.000 C 
BRANCH   8   9
ATOM      9  C   UNL     1     -10.021 -30.066  18.325  1.00  0.00     0.000 C 
BRANCH   9  10
ATOM     10  C   UNL     1      -9.966 -28.562  18.619  1.00  0.00     0.000 C 
BRANCH  10  11
ATOM     11  C   UNL     1     -10.566 -27.742  17.466  1.00  0.00     0.000 C 
BRANCH  11  12
ATOM     12  C   UNL     1     -10.979 -26.321  17.892  1.00  0.00     0.000 C 
BRANCH  12  13
ATOM     13  C   UNL     1     -10.867 -25.251  16.786  1.00  0.00     0.006 C 
BRANCH  13  14
ATOM     14  C   UNL     1      -9.758 -24.213  17.017  1.00  0.00     0.053 C 
BRANCH  14  15
ATOM     15  C   UNL     1     -10.232 -23.060  17.847  1.00  0.00     0.041 C 
ATOM     16  O   UNL     1      -9.590 -22.714  18.873  1.00  0.00    -0.550 OA
ATOM     17  O   UNL     1     -11.391 -22.378  17.496  1.00  0.00    -0.550 OA
ENDBRANCH  14  15
ENDBRANCH  13  14
ENDBRANCH  12  13
ENDBRANCH  11  12
ENDBRANCH  10  11
ENDBRANCH   9  10
ENDBRANCH   8   9
ENDBRANCH   7   8
ENDBRANCH   6   7
ENDBRANCH   5   6
ENDBRANCH   4   5
ENDBRANCH   3   4
ENDBRANCH   2   3
ENDBRANCH   1   2
BRANCH   1  18
ATOM     18  C   UNL     1     -17.752 -29.311  18.185  1.00  0.00     0.000 C 
BRANCH  18  19
ATOM     19  C   UNL     1     -18.886 -30.349  18.088  1.00  0.00     0.000 C 
BRANCH  19  20
ATOM     20  C   UNL     1     -20.039 -30.160  19.088  1.00  0.00     0.000 C 
BRANCH  20  21
ATOM     21  C   UNL     1     -20.280 -31.403  19.961  1.00  0.00     0.000 C 
BRANCH  21  22
ATOM     22  C   UNL     1     -19.013 -31.875  20.697  1.00  0.00     0.000 C 
BRANCH  22  23
ATOM     23  C   UNL     1     -18.686 -33.372  20.551  1.00  0.00     0.000 C 
BRANCH  23  24
ATOM     24  C   UNL     1     -17.181 -33.673  20.674  1.00  0.00    -0.000 C 
BRANCH  24  25
ATOM     25  C   UNL     1     -16.308 -32.514  20.166  1.00  0.00    -0.000 C 
BRANCH  25  26
ATOM     26  C   UNL     1     -14.972 -32.996  19.573  1.00  0.00    -0.000 C 
BRANCH  26  27
ATOM     27  C   UNL     1     -15.127 -33.542  18.144  1.00  0.00    -0.000 C 
BRANCH  27  28
ATOM     28  C   UNL     1     -16.198 -32.790  17.337  1.00  0.00    -0.000 C 
BRANCH  28  29
ATOM     29  C   UNL     1     -17.112 -33.751  16.548  1.00  0.00    -0.000 C 
BRANCH  29  30
ATOM     30  C   UNL     1     -18.593 -33.667  16.955  1.00  0.00    -0.000 C 
BRANCH  30  31
ATOM     31  C   UNL     1     -19.518 -33.312  15.780  1.00  0.00    -0.003 C 
ATOM     32  C   UNL     1     -18.741 -33.254  14.467  1.00  0.00     0.004 C 
ENDBRANCH  30  31
ENDBRANCH  29  30
ENDBRANCH  28  29
ENDBRANCH  27  28
ENDBRANCH  26  27
ENDBRANCH  25  26
ENDBRANCH  24  25
ENDBRANCH  23  24
ENDBRANCH  22  23
ENDBRANCH  21  22
ENDBRANCH  20  21
ENDBRANCH  19  20
ENDBRANCH  18  19
ENDBRANCH   1  18
TORSDOF 28
ENDMDL
MODEL 2
REMARK VINA RESULT:    -4.495      2.387      3.516
REMARK INTER + INTRA:         -16.588
REMARK INTER:                 -11.505
REMARK INTRA:                  -5.083
REMARK UNBOUND:                -4.735
REMARK SMILES CCCCCCCCCCCCCCCCCCCCCCCCCCCCCC(=O)[O-]
REMARK SMILES IDX 16 1 17 2 18 3 19 4 20 5 21 6 22 7 23 8 24 9 25 10 26 11
REMARK SMILES IDX 27 12 28 13 29 14 30 15 31 16 32 17 15 18 14 19 13 20 12 21
REMARK SMILES IDX 11 22 10 23 9 24 8 25 7 26 6 27 5 28 4 29 3 30 2 31 1 32
REMARK H PARENT
REMARK Flexibility Score: inf
ROOT
ATOM      1  C   UNL     1     -18.022 -28.417  18.720  1.00  0.00     0.000 C 
ENDROOT
BRANCH   1   2
ATOM      2  C   UNL     1     -16.769 -28.416  19.620  1.00  0.00     0.000 C 
BRANCH   2   3
ATOM      3  C   UNL     1     -15.526 -27.872  18.898  1.00  0.00     0.000 C 
BRANCH   3   4
ATOM      4  C   UNL     1     -14.680 -28.980  18.253  1.00  0.00     0.000 C 
BRANCH   4   5
ATOM      5  C   UNL     1     -13.186 -28.638  18.334  1.00  0.00     0.000 C 
BRANCH   5   6
ATOM      6  C   UNL     1     -12.333 -29.466  17.359  1.00  0.00     0.000 C 
BRANCH   6   7
ATOM      7  C   UNL     1     -13.180 -30.370  16.445  1.00  0.00     0.000 C 
BRANCH   7   8
ATOM      8  C   UNL     1     -12.695 -31.835  16.469  1.00  0.00     0.000 C 
BRANCH   8   9
ATOM      9  C   UNL     1     -12.711 -32.476  17.870  1.00  0.00     0.000 C 
BRANCH   9  10
ATOM     10  C   UNL     1     -11.501 -33.381  18.130  1.00  0.00     0.000 C 
BRANCH  10  11
ATOM     11  C   UNL     1     -10.767 -32.981  19.419  1.00  0.00     0.000 C 
BRANCH  11  12
ATOM     12  C   UNL     1     -11.125 -31.560  19.896  1.00  0.00     0.000 C 
BRANCH  12  13
ATOM     13  C   UNL     1     -10.000 -30.825  20.652  1.00  0.00     0.006 C 
BRANCH  13  14
ATOM     14  C   UNL     1     -10.218 -29.311  20.800  1.00  0.00     0.053 C 
BRANCH  14  15
ATOM     15  C   UNL     1      -9.486 -28.533  19.751  1.00  0.00     0.041 C 
ATOM     16  O   UNL     1      -9.390 -27.281  19.845  1.00  0.00    -0.550 OA
ATOM     17  O   UNL     1      -8.924 -29.188  18.662  1.00  0.00    -0.550 OA
ENDBRANCH  14  15
ENDBRANCH  13  14
ENDBRANCH  12  13
ENDBRANCH  11  12
ENDBRANCH  10  11
ENDBRANCH   9  10
ENDBRANCH   8   9
ENDBRANCH   7   8
ENDBRANCH   6   7
ENDBRANCH   5   6
ENDBRANCH   4   5
ENDBRANCH   3   4
ENDBRANCH   2   3
ENDBRANCH   1   2
BRANCH   1  18
ATOM     18  C   UNL     1     -18.059 -29.616  17.748  1.00  0.00     0.000 C 
BRANCH  18  19
ATOM     19  C   UNL     1     -19.319 -30.493  17.879  1.00  0.00     0.000 C 
BRANCH  19  20
ATOM     20  C   UNL     1     -19.987 -30.482  19.264  1.00  0.00     0.000 C 
BRANCH  20  21
ATOM     21  C   UNL     1     -19.654 -31.733  20.095  1.00  0.00     0.000 C 
BRANCH  21  22
ATOM     22  C   UNL     1     -18.445 -31.530  21.027  1.00  0.00     0.000 C 
BRANCH  22  23
ATOM     23  C   UNL     1     -17.288 -32.526  20.829  1.00  0.00     0.000 C 
BRANCH  23  24
ATOM     24  C   UNL     1     -16.200 -32.003  19.874  1.00  0.00    -0.000 C 
BRANCH  24  25
ATOM     25  C   UNL     1     -16.201 -32.739  18.524  1.00  0.00    -0.000 C 
BRANCH  25  26
ATOM     26  C   UNL     1     -17.118 -33.976  18.527  1.00  0.00    -0.000 C 
BRANCH  26  27
ATOM     27  C   UNL     1     -18.071 -34.003  17.321  1.00  0.00    -0.000 C 
BRANCH  27  28
ATOM     28  C   UNL     1     -17.349 -33.733  15.990  1.00  0.00    -0.000 C 
BRANCH  28  29
ATOM     29  C   UNL     1     -18.116 -32.727  15.106  1.00  0.00    -0.000 C 
BRANCH  29  30
ATOM     30  C   UNL     1     -17.651 -32.716  13.640  1.00  0.00    -0.000 C 
BRANCH  30  31
ATOM     31  C   UNL     1     -16.207 -32.217  13.474  1.00  0.00    -0.003 C 
ATOM     32  C   UNL     1     -16.030 -30.830  14.087  1.00  0.00     0.004 C 
ENDBRANCH  30  31
ENDBRANCH  29  30
ENDBRANCH  28  29
ENDBRANCH  27  28
ENDBRANCH  26  27
ENDBRANCH  25  26
ENDBRANCH  24  25
ENDBRANCH  23  24
ENDBRANCH  22  23
ENDBRANCH  21  22
ENDBRANCH  20  21
ENDBRANCH  19  20
ENDBRANCH  18  19
ENDBRANCH   1  18
TORSDOF 28
ENDMDL
MODEL 3
REMARK VINA RESULT:    -4.494      1.754      3.746
REMARK INTER + INTRA:         -16.585
REMARK INTER:                 -12.493
REMARK INTRA:                  -4.092
REMARK UNBOUND:                -4.735
REMARK SMILES CCCCCCCCCCCCCCCCCCCCCCCCCCCCCC(=O)[O-]
REMARK SMILES IDX 16 1 17 2 18 3 19 4 20 5 21 6 22 7 23 8 24 9 25 10 26 11
REMARK SMILES IDX 27 12 28 13 29 14 30 15 31 16 32 17 15 18 14 19 13 20 12 21
REMARK SMILES IDX 11 22 10 23 9 24 8 25 7 26 6 27 5 28 4 29 3 30 2 31 1 32
REMARK H PARENT
REMARK Flexibility Score: inf
ROOT
ATOM      1  C   UNL     1     -16.473 -28.140  19.740  1.00  0.00     0.000 C 
ENDROOT
BRANCH   1   2
ATOM      2  C   UNL     1     -15.583 -27.921  18.499  1.00  0.00     0.000 C 
BRANCH   2   3
ATOM      3  C   UNL     1     -14.247 -28.673  18.591  1.00  0.00     0.000 C 
BRANCH   3   4
ATOM      4  C   UNL     1     -13.035 -27.771  18.308  1.00  0.00     0.000 C 
BRANCH   4   5
ATOM      5  C   UNL     1     -11.878 -28.588  17.717  1.00  0.00     0.000 C 
BRANCH   5   6
ATOM      6  C   UNL     1     -10.719 -27.707  17.225  1.00  0.00     0.000 C 
BRANCH   6   7
ATOM      7  C   UNL     1     -10.655 -26.349  17.945  1.00  0.00     0.000 C 
BRANCH   7   8
ATOM      8  C   UNL     1     -10.761 -25.164  16.961  1.00  0.00     0.000 C 
BRANCH   8   9
ATOM      9  C   UNL     1     -10.430 -23.798  17.590  1.00  0.00     0.000 C 
BRANCH   9  10
ATOM     10  C   UNL     1      -9.078 -23.238  17.132  1.00  0.00     0.000 C 
BRANCH  10  11
ATOM     11  C   UNL     1      -8.174 -22.903  18.329  1.00  0.00     0.000 C 
BRANCH  11  12
ATOM     12  C   UNL     1      -7.239 -21.709  18.059  1.00  0.00     0.000 C 
BRANCH  12  13
ATOM     13  C   UNL     1      -7.787 -20.339  18.508  1.00  0.00     0.006 C 
BRANCH  13  14
ATOM     14  C   UNL     1      -8.828 -20.410  19.635  1.00  0.00     0.053 C 
BRANCH  14  15
ATOM     15  C   UNL     1     -10.203 -20.061  19.154  1.00  0.00     0.041 C 
ATOM     16  O   UNL     1     -11.155 -19.969  19.973  1.00  0.00    -0.550 OA
ATOM     17  O   UNL     1     -10.436 -19.855  17.799  1.00  0.00    -0.550 OA
ENDBRANCH  14  15
ENDBRANCH  13  14
ENDBRANCH  12  13
ENDBRANCH  11  12
ENDBRANCH  10  11
ENDBRANCH   9  10
ENDBRANCH   8   9
ENDBRANCH   7   8
ENDBRANCH   6   7
ENDBRANCH   5   6
ENDBRANCH   4   5
ENDBRANCH   3   4
ENDBRANCH   2   3
ENDBRANCH   1   2
BRANCH   1  18
ATOM     18  C   UNL     1     -17.588 -29.180  19.499  1.00  0.00     0.000 C 
BRANCH  18  19
ATOM     19  C   UNL     1     -17.773 -29.572  18.021  1.00  0.00     0.000 C 
BRANCH  19  20
ATOM     20  C   UNL     1     -18.559 -30.871  17.778  1.00  0.00     0.000 C 
BRANCH  20  21
ATOM     21  C   UNL     1     -19.193 -31.432  19.063  1.00  0.00     0.000 C 
BRANCH  21  22
ATOM     22  C   UNL     1     -19.042 -32.958  19.191  1.00  0.00     0.000 C 
BRANCH  22  23
ATOM     23  C   UNL     1     -18.447 -33.450  20.523  1.00  0.00     0.000 C 
BRANCH  23  24
ATOM     24  C   UNL     1     -18.117 -32.303  21.495  1.00  0.00    -0.000 C 
BRANCH  24  25
ATOM     25  C   UNL     1     -16.604 -32.124  21.699  1.00  0.00    -0.000 C 
BRANCH  25  26
ATOM     26  C   UNL     1     -15.795 -33.346  21.229  1.00  0.00    -0.000 C 
BRANCH  26  27
ATOM     27  C   UNL     1     -14.716 -32.976  20.198  1.00  0.00    -0.000 C 
BRANCH  27  28
ATOM     28  C   UNL     1     -15.245 -32.037  19.101  1.00  0.00    -0.000 C 
BRANCH  28  29
ATOM     29  C   UNL     1     -15.042 -32.623  17.687  1.00  0.00    -0.000 C 
BRANCH  29  30
ATOM     30  C   UNL     1     -15.046 -31.562  16.574  1.00  0.00    -0.000 C 
BRANCH  30  31
ATOM     31  C   UNL     1     -13.664 -31.362  15.932  1.00  0.00    -0.003 C 
ATOM     32  C   UNL     1     -12.587 -32.132  16.694  1.00  0.00     0.004 C 
ENDBRANCH  30  31
ENDBRANCH  29  30
ENDBRANCH  28  29
ENDBRANCH  27  28
ENDBRANCH  26  27
ENDBRANCH  25  26
ENDBRANCH  24  25
ENDBRANCH  23  24
ENDBRANCH  22  23
ENDBRANCH  21  22
ENDBRANCH  20  21
ENDBRANCH  19  20
ENDBRANCH  18  19
ENDBRANCH   1  18
TORSDOF 28
ENDMDL
MODEL 4
REMARK VINA RESULT:    -4.389      2.615      7.800
REMARK INTER + INTRA:         -16.309
REMARK INTER:                 -11.215
REMARK INTRA:                  -5.094
REMARK UNBOUND:                -4.735
REMARK SMILES CCCCCCCCCCCCCCCCCCCCCCCCCCCCCC(=O)[O-]
REMARK SMILES IDX 16 1 17 2 18 3 19 4 20 5 21 6 22 7 23 8 24 9 25 10 26 11
REMARK SMILES IDX 27 12 28 13 29 14 30 15 31 16 32 17 15 18 14 19 13 20 12 21
REMARK SMILES IDX 11 22 10 23 9 24 8 25 7 26 6 27 5 28 4 29 3 30 2 31 1 32
REMARK H PARENT
REMARK Flexibility Score: inf
ROOT
ATOM      1  C   UNL     1     -15.447 -31.706  17.775  1.00  0.00     0.000 C 
ENDROOT
BRANCH   1   2
ATOM      2  C   UNL     1     -15.793 -31.595  16.276  1.00  0.00     0.000 C 
BRANCH   2   3
ATOM      3  C   UNL     1     -15.204 -32.748  15.448  1.00  0.00     0.000 C 
BRANCH   3   4
ATOM      4  C   UNL     1     -16.279 -33.570  14.721  1.00  0.00     0.000 C 
BRANCH   4   5
ATOM      5  C   UNL     1     -17.513 -32.707  14.425  1.00  0.00     0.000 C 
BRANCH   5   6
ATOM      6  C   UNL     1     -18.832 -33.423  14.755  1.00  0.00     0.000 C 
BRANCH   6   7
ATOM      7  C   UNL     1     -19.453 -32.950  16.081  1.00  0.00     0.000 C 
BRANCH   7   8
ATOM      8  C   UNL     1     -18.842 -33.674  17.299  1.00  0.00     0.000 C 
BRANCH   8   9
ATOM      9  C   UNL     1     -19.601 -33.428  18.617  1.00  0.00     0.000 C 
BRANCH   9  10
ATOM     10  C   UNL     1     -18.747 -32.725  19.679  1.00  0.00     0.000 C 
BRANCH  10  11
ATOM     11  C   UNL     1     -19.371 -31.386  20.104  1.00  0.00     0.000 C 
BRANCH  11  12
ATOM     12  C   UNL     1     -19.661 -30.455  18.912  1.00  0.00     0.000 C 
BRANCH  12  13
ATOM     13  C   UNL     1     -18.447 -29.652  18.402  1.00  0.00     0.006 C 
BRANCH  13  14
ATOM     14  C   UNL     1     -18.340 -28.231  18.976  1.00  0.00     0.053 C 
BRANCH  14  15
ATOM     15  C   UNL     1     -16.927 -27.734  18.986  1.00  0.00     0.041 C 
ATOM     16  O   UNL     1     -16.291 -27.660  20.070  1.00  0.00    -0.550 OA
ATOM     17  O   UNL     1     -16.319 -27.338  17.801  1.00  0.00    -0.550 OA
ENDBRANCH  14  15
ENDBRANCH  13  14
ENDBRANCH  12  13
ENDBRANCH  11  12
ENDBRANCH  10  11
ENDBRANCH   9  10
ENDBRANCH   8   9
ENDBRANCH   7   8
ENDBRANCH   6   7
ENDBRANCH   5   6
ENDBRANCH   4   5
ENDBRANCH   3   4
ENDBRANCH   2   3
ENDBRANCH   1   2
BRANCH   1  18
ATOM     18  C   UNL     1     -15.381 -33.168  18.267  1.00  0.00     0.000 C 
BRANCH  18  19
ATOM     19  C   UNL     1     -14.830 -33.326  19.697  1.00  0.00     0.000 C 
BRANCH  19  20
ATOM     20  C   UNL     1     -13.367 -32.895  19.891  1.00  0.00     0.000 C 
BRANCH  20  21
ATOM     21  C   UNL     1     -12.382 -33.752  19.077  1.00  0.00     0.000 C 
BRANCH  21  22
ATOM     22  C   UNL     1     -11.650 -32.951  17.985  1.00  0.00     0.000 C 
BRANCH  22  23
ATOM     23  C   UNL     1     -10.391 -32.198  18.454  1.00  0.00     0.000 C 
BRANCH  23  24
ATOM     24  C   UNL     1      -9.692 -32.880  19.644  1.00  0.00    -0.000 C 
BRANCH  24  25
ATOM     25  C   UNL     1      -9.703 -32.006  20.909  1.00  0.00    -0.000 C 
BRANCH  25  26
ATOM     26  C   UNL     1     -10.273 -30.599  20.651  1.00  0.00    -0.000 C 
BRANCH  26  27
ATOM     27  C   UNL     1      -9.178 -29.521  20.604  1.00  0.00    -0.000 C 
BRANCH  27  28
ATOM     28  C   UNL     1      -9.114 -28.803  19.245  1.00  0.00    -0.000 C 
BRANCH  28  29
ATOM     29  C   UNL     1     -10.463 -28.157  18.864  1.00  0.00    -0.000 C 
BRANCH  29  30
ATOM     30  C   UNL     1     -10.899 -28.447  17.418  1.00  0.00    -0.000 C 
BRANCH  30  31
ATOM     31  C   UNL     1     -12.195 -29.269  17.337  1.00  0.00    -0.003 C 
ATOM     32  C   UNL     1     -13.058 -29.058  18.578  1.00  0.00     0.004 C 
ENDBRANCH  30  31
ENDBRANCH  29  30
ENDBRANCH  28  29
ENDBRANCH  27  28
ENDBRANCH  26  27
ENDBRANCH  25  26
ENDBRANCH  24  25
ENDBRANCH  23  24
ENDBRANCH  22  23
ENDBRANCH  21  22
ENDBRANCH  20  21
ENDBRANCH  19  20
ENDBRANCH  18  19
ENDBRANCH   1  18
TORSDOF 28
ENDMDL
MODEL 5
REMARK VINA RESULT:    -4.361      2.451      9.048
REMARK INTER + INTRA:         -16.235
REMARK INTER:                 -11.969
REMARK INTRA:                  -4.266
REMARK UNBOUND:                -4.735
REMARK SMILES CCCCCCCCCCCCCCCCCCCCCCCCCCCCCC(=O)[O-]
REMARK SMILES IDX 16 1 17 2 18 3 19 4 20 5 21 6 22 7 23 8 24 9 25 10 26 11
REMARK SMILES IDX 27 12 28 13 29 14 30 15 31 16 32 17 15 18 14 19 13 20 12 21
REMARK SMILES IDX 11 22 10 23 9 24 8 25 7 26 6 27 5 28 4 29 3 30 2 31 1 32
REMARK H PARENT
REMARK Flexibility Score: inf
ROOT
ATOM      1  C   UNL     1     -13.216 -30.183  17.653  1.00  0.00     0.000 C 
ENDROOT
BRANCH   1   2
ATOM      2  C   UNL     1     -14.396 -30.440  16.693  1.00  0.00     0.000 C 
BRANCH   2   3
ATOM      3  C   UNL     1     -15.381 -31.486  17.236  1.00  0.00     0.000 C 
BRANCH   3   4
ATOM      4  C   UNL     1     -14.824 -32.917  17.178  1.00  0.00     0.000 C 
BRANCH   4   5
ATOM      5  C   UNL     1     -14.979 -33.615  18.537  1.00  0.00     0.000 C 
BRANCH   5   6
ATOM      6  C   UNL     1     -15.246 -32.629  19.684  1.00  0.00     0.000 C 
BRANCH   6   7
ATOM      7  C   UNL     1     -15.996 -33.274  20.863  1.00  0.00     0.000 C 
BRANCH   7   8
ATOM      8  C   UNL     1     -17.396 -33.779  20.455  1.00  0.00     0.000 C 
BRANCH   8   9
ATOM      9  C   UNL     1     -18.554 -32.946  21.037  1.00  0.00     0.000 C 
BRANCH   9  10
ATOM     10  C   UNL     1     -19.515 -32.421  19.963  1.00  0.00     0.000 C 
BRANCH  10  11
ATOM     11  C   UNL     1     -18.847 -32.387  18.579  1.00  0.00     0.000 C 
BRANCH  11  12
ATOM     12  C   UNL     1     -18.668 -30.957  18.035  1.00  0.00     0.000 C 
BRANCH  12  13
ATOM     13  C   UNL     1     -18.736 -29.843  19.099  1.00  0.00     0.006 C 
BRANCH  13  14
ATOM     14  C   UNL     1     -17.370 -29.265  19.501  1.00  0.00     0.053 C 
BRANCH  14  15
ATOM     15  C   UNL     1     -17.392 -27.769  19.573  1.00  0.00     0.041 C 
ATOM     16  O   UNL     1     -16.457 -27.151  20.146  1.00  0.00    -0.550 OA
ATOM     17  O   UNL     1     -18.452 -27.060  19.022  1.00  0.00    -0.550 OA
ENDBRANCH  14  15
ENDBRANCH  13  14
ENDBRANCH  12  13
ENDBRANCH  11  12
ENDBRANCH  10  11
ENDBRANCH   9  10
ENDBRANCH   8   9
ENDBRANCH   7   8
ENDBRANCH   6   7
ENDBRANCH   5   6
ENDBRANCH   4   5
ENDBRANCH   3   4
ENDBRANCH   2   3
ENDBRANCH   1   2
BRANCH   1  18
ATOM     18  C   UNL     1     -11.905 -30.845  17.178  1.00  0.00     0.000 C 
BRANCH  18  19
ATOM     19  C   UNL     1     -11.284 -31.814  18.203  1.00  0.00     0.000 C 
BRANCH  19  20
ATOM     20  C   UNL     1     -11.583 -31.494  19.677  1.00  0.00     0.000 C 
BRANCH  20  21
ATOM     21  C   UNL     1     -10.313 -31.434  20.542  1.00  0.00     0.000 C 
BRANCH  21  22
ATOM     22  C   UNL     1      -9.276 -30.423  20.018  1.00  0.00     0.000 C 
BRANCH  22  23
ATOM     23  C   UNL     1      -9.166 -29.116  20.824  1.00  0.00     0.000 C 
BRANCH  23  24
ATOM     24  C   UNL     1      -9.583 -27.874  20.016  1.00  0.00    -0.000 C 
BRANCH  24  25
ATOM     25  C   UNL     1      -9.937 -28.215  18.559  1.00  0.00    -0.000 C 
BRANCH  25  26
ATOM     26  C   UNL     1     -11.040 -27.304  17.990  1.00  0.00    -0.000 C 
BRANCH  26  27
ATOM     27  C   UNL     1     -10.638 -25.820  17.998  1.00  0.00    -0.000 C 
BRANCH  27  28
ATOM     28  C   UNL     1     -10.587 -25.215  16.585  1.00  0.00    -0.000 C 
BRANCH  28  29
ATOM     29  C   UNL     1      -9.877 -23.844  16.565  1.00  0.00    -0.000 C 
BRANCH  29  30
ATOM     30  C   UNL     1     -10.441 -22.844  17.588  1.00  0.00    -0.000 C 
BRANCH  30  31
ATOM     31  C   UNL     1      -9.345 -22.124  18.389  1.00  0.00    -0.003 C 
ATOM     32  C   UNL     1      -7.980 -22.767  18.154  1.00  0.00     0.004 C 
ENDBRANCH  30  31
ENDBRANCH  29  30
ENDBRANCH  28  29
ENDBRANCH  27  28
ENDBRANCH  26  27
ENDBRANCH  25  26
ENDBRANCH  24  25
ENDBRANCH  23  24
ENDBRANCH  22  23
ENDBRANCH  21  22
ENDBRANCH  20  21
ENDBRANCH  19  20
ENDBRANCH  18  19
ENDBRANCH   1  18
TORSDOF 28
ENDMDL
MODEL 6
REMARK VINA RESULT:    -4.350      3.076      9.191
REMARK INTER + INTRA:         -16.205
REMARK INTER:                 -11.828
REMARK INTRA:                  -4.377
REMARK UNBOUND:                -4.735
REMARK SMILES CCCCCCCCCCCCCCCCCCCCCCCCCCCCCC(=O)[O-]
REMARK SMILES IDX 16 1 17 2 18 3 19 4 20 5 21 6 22 7 23 8 24 9 25 10 26 11
REMARK SMILES IDX 27 12 28 13 29 14 30 15 31 16 32 17 15 18 14 19 13 20 12 21
REMARK SMILES IDX 11 22 10 23 9 24 8 25 7 26 6 27 5 28 4 29 3 30 2 31 1 32
REMARK H PARENT
REMARK Flexibility Score: inf
ROOT
ATOM      1  C   UNL     1     -16.193 -27.410  18.805  1.00  0.00     0.000 C 
ENDROOT
BRANCH   1   2
ATOM      2  C   UNL     1     -17.574 -27.769  19.390  1.00  0.00     0.000 C 
BRANCH   2   3
ATOM      3  C   UNL     1     -17.856 -29.279  19.350  1.00  0.00     0.000 C 
BRANCH   3   4
ATOM      4  C   UNL     1     -19.210 -29.616  18.706  1.00  0.00     0.000 C 
BRANCH   4   5
ATOM      5  C   UNL     1     -19.894 -30.769  19.453  1.00  0.00     0.000 C 
BRANCH   5   6
ATOM      6  C   UNL     1     -18.976 -31.433  20.490  1.00  0.00     0.000 C 
BRANCH   6   7
ATOM      7  C   UNL     1     -19.112 -32.965  20.514  1.00  0.00     0.000 C 
BRANCH   7   8
ATOM      8  C   UNL     1     -17.767 -33.672  20.240  1.00  0.00     0.000 C 
BRANCH   8   9
ATOM      9  C   UNL     1     -16.599 -32.706  19.966  1.00  0.00     0.000 C 
BRANCH   9  10
ATOM     10  C   UNL     1     -15.863 -33.011  18.655  1.00  0.00     0.000 C 
BRANCH  10  11
ATOM     11  C   UNL     1     -16.833 -33.497  17.567  1.00  0.00     0.000 C 
BRANCH  11  12
ATOM     12  C   UNL     1     -17.547 -32.341  16.841  1.00  0.00     0.000 C 
BRANCH  12  13
ATOM     13  C   UNL     1     -16.615 -31.234  16.307  1.00  0.00     0.006 C 
BRANCH  13  14
ATOM     14  C   UNL     1     -15.677 -31.684  15.176  1.00  0.00     0.053 C 
BRANCH  14  15
ATOM     15  C   UNL     1     -16.203 -31.306  13.825  1.00  0.00     0.041 C 
ATOM     16  O   UNL     1     -17.022 -32.056  13.233  1.00  0.00    -0.550 OA
ATOM     17  O   UNL     1     -15.776 -30.133  13.215  1.00  0.00    -0.550 OA
ENDBRANCH  14  15
ENDBRANCH  13  14
ENDBRANCH  12  13
ENDBRANCH  11  12
ENDBRANCH  10  11
ENDBRANCH   9  10
ENDBRANCH   8   9
ENDBRANCH   7   8
ENDBRANCH   6   7
ENDBRANCH   5   6
ENDBRANCH   4   5
ENDBRANCH   3   4
ENDBRANCH   2   3
ENDBRANCH   1   2
BRANCH   1  18
ATOM     18  C   UNL     1     -15.490 -28.617  18.147  1.00  0.00     0.000 C 
BRANCH  18  19
ATOM     19  C   UNL     1     -13.997 -28.747  18.508  1.00  0.00     0.000 C 
BRANCH  19  20
ATOM     20  C   UNL     1     -13.431 -30.176  18.462  1.00  0.00     0.000 C 
BRANCH  20  21
ATOM     21  C   UNL     1     -11.955 -30.217  18.031  1.00  0.00     0.000 C 
BRANCH  21  22
ATOM     22  C   UNL     1     -11.571 -29.059  17.093  1.00  0.00     0.000 C 
BRANCH  22  23
ATOM     23  C   UNL     1     -10.308 -28.275  17.498  1.00  0.00     0.000 C 
BRANCH  23  24
ATOM     24  C   UNL     1     -10.606 -27.114  18.464  1.00  0.00    -0.000 C 
BRANCH  24  25
ATOM     25  C   UNL     1     -11.315 -25.941  17.769  1.00  0.00    -0.000 C 
BRANCH  25  26
ATOM     26  C   UNL     1     -10.575 -25.466  16.505  1.00  0.00    -0.000 C 
BRANCH  26  27
ATOM     27  C   UNL     1      -9.890 -24.104  16.703  1.00  0.00    -0.000 C 
BRANCH  27  28
ATOM     28  C   UNL     1     -10.889 -22.984  17.040  1.00  0.00    -0.000 C 
BRANCH  28  29
ATOM     29  C   UNL     1     -10.548 -22.284  18.373  1.00  0.00    -0.000 C 
BRANCH  29  30
ATOM     30  C   UNL     1      -9.217 -22.746  18.989  1.00  0.00    -0.000 C 
BRANCH  30  31
ATOM     31  C   UNL     1      -9.406 -23.568  20.274  1.00  0.00    -0.003 C 
ATOM     32  C   UNL     1      -8.397 -24.712  20.348  1.00  0.00     0.004 C 
ENDBRANCH  30  31
ENDBRANCH  29  30
ENDBRANCH  28  29
ENDBRANCH  27  28
ENDBRANCH  26  27
ENDBRANCH  25  26
ENDBRANCH  24  25
ENDBRANCH  23  24
ENDBRANCH  22  23
ENDBRANCH  21  22
ENDBRANCH  20  21
ENDBRANCH  19  20
ENDBRANCH  18  19
ENDBRANCH   1  18
TORSDOF 28
ENDMDL
MODEL 7
REMARK VINA RESULT:    -4.331      1.533      4.224
REMARK INTER + INTRA:         -16.155
REMARK INTER:                 -12.218
REMARK INTRA:                  -3.937
REMARK UNBOUND:                -4.735
REMARK SMILES CCCCCCCCCCCCCCCCCCCCCCCCCCCCCC(=O)[O-]
REMARK SMILES IDX 16 1 17 2 18 3 19 4 20 5 21 6 22 7 23 8 24 9 25 10 26 11
REMARK SMILES IDX 27 12 28 13 29 14 30 15 31 16 32 17 15 18 14 19 13 20 12 21
REMARK SMILES IDX 11 22 10 23 9 24 8 25 7 26 6 27 5 28 4 29 3 30 2 31 1 32
REMARK H PARENT
REMARK Flexibility Score: inf
ROOT
ATOM      1  C   UNL     1     -13.425 -33.723  19.083  1.00  0.00     0.000 C 
ENDROOT
BRANCH   1   2
ATOM      2  C   UNL     1     -12.036 -33.159  18.721  1.00  0.00     0.000 C 
BRANCH   2   3
ATOM      3  C   UNL     1     -12.083 -32.206  17.516  1.00  0.00     0.000 C 
BRANCH   3   4
ATOM      4  C   UNL     1     -11.327 -30.892  17.768  1.00  0.00     0.000 C 
BRANCH   4   5
ATOM      5  C   UNL     1     -12.078 -30.021  18.785  1.00  0.00     0.000 C 
BRANCH   5   6
ATOM      6  C   UNL     1     -12.094 -28.534  18.397  1.00  0.00     0.000 C 
BRANCH   6   7
ATOM      7  C   UNL     1     -10.688 -27.978  18.107  1.00  0.00     0.000 C 
BRANCH   7   8
ATOM      8  C   UNL     1     -10.623 -26.445  18.280  1.00  0.00     0.000 C 
BRANCH   8   9
ATOM      9  C   UNL     1     -10.993 -25.657  17.009  1.00  0.00     0.000 C 
BRANCH   9  10
ATOM     10  C   UNL     1     -10.520 -24.199  17.048  1.00  0.00     0.000 C 
BRANCH  10  11
ATOM     11  C   UNL     1      -9.440 -23.987  18.120  1.00  0.00     0.000 C 
BRANCH  11  12
ATOM     12  C   UNL     1      -8.546 -22.765  17.838  1.00  0.00     0.000 C 
BRANCH  12  13
ATOM     13  C   UNL     1      -8.610 -21.652  18.903  1.00  0.00     0.006 C 
BRANCH  13  14
ATOM     14  C   UNL     1      -9.491 -20.454  18.518  1.00  0.00     0.053 C 
BRANCH  14  15
ATOM     15  C   UNL     1     -10.950 -20.795  18.554  1.00  0.00     0.041 C 
ATOM     16  O   UNL     1     -11.512 -21.048  19.651  1.00  0.00    -0.550 OA
ATOM     17  O   UNL     1     -11.682 -20.848  17.374  1.00  0.00    -0.550 OA
ENDBRANCH  14  15
ENDBRANCH  13  14
ENDBRANCH  12  13
ENDBRANCH  11  12
ENDBRANCH  10  11
ENDBRANCH   9  10
ENDBRANCH   8   9
ENDBRANCH   7   8
ENDBRANCH   6   7
ENDBRANCH   5   6
ENDBRANCH   4   5
ENDBRANCH   3   4
ENDBRANCH   2   3
ENDBRANCH   1   2
BRANCH   1  18
ATOM     18  C   UNL     1     -14.213 -32.802  20.039  1.00  0.00     0.000 C 
BRANCH  18  19
ATOM     19  C   UNL     1     -15.565 -33.382  20.498  1.00  0.00     0.000 C 
BRANCH  19  20
ATOM     20  C   UNL     1     -16.250 -32.625  21.648  1.00  0.00     0.000 C 
BRANCH  20  21
ATOM     21  C   UNL     1     -17.784 -32.627  21.531  1.00  0.00     0.000 C 
BRANCH  21  22
ATOM     22  C   UNL     1     -18.291 -33.397  20.298  1.00  0.00     0.000 C 
BRANCH  22  23
ATOM     23  C   UNL     1     -19.266 -32.622  19.393  1.00  0.00     0.000 C 
BRANCH  23  24
ATOM     24  C   UNL     1     -19.956 -31.451  20.117  1.00  0.00    -0.000 C 
BRANCH  24  25
ATOM     25  C   UNL     1     -20.206 -30.252  19.187  1.00  0.00    -0.000 C 
BRANCH  25  26
ATOM     26  C   UNL     1     -18.943 -29.832  18.412  1.00  0.00    -0.000 C 
BRANCH  26  27
ATOM     27  C   UNL     1     -17.829 -29.320  19.339  1.00  0.00    -0.000 C 
BRANCH  27  28
ATOM     28  C   UNL     1     -16.538 -28.978  18.576  1.00  0.00    -0.000 C 
BRANCH  28  29
ATOM     29  C   UNL     1     -15.635 -30.214  18.378  1.00  0.00    -0.000 C 
BRANCH  29  30
ATOM     30  C   UNL     1     -15.415 -30.586  16.902  1.00  0.00    -0.000 C 
BRANCH  30  31
ATOM     31  C   UNL     1     -16.520 -31.497  16.344  1.00  0.00    -0.003 C 
ATOM     32  C   UNL     1     -16.427 -32.901  16.937  1.00  0.00     0.004 C 
ENDBRANCH  30  31
ENDBRANCH  29  30
ENDBRANCH  28  29
ENDBRANCH  27  28
ENDBRANCH  26  27
ENDBRANCH  25  26
ENDBRANCH  24  25
ENDBRANCH  23  24
ENDBRANCH  22  23
ENDBRANCH  21  22
ENDBRANCH  20  21
ENDBRANCH  19  20
ENDBRANCH  18  19
ENDBRANCH   1  18
TORSDOF 28
ENDMDL
MODEL 8
REMARK VINA RESULT:    -4.306      1.736      3.924
REMARK INTER + INTRA:         -16.089
REMARK INTER:                 -12.109
REMARK INTRA:                  -3.981
REMARK UNBOUND:                -4.735
REMARK SMILES CCCCCCCCCCCCCCCCCCCCCCCCCCCCCC(=O)[O-]
REMARK SMILES IDX 16 1 17 2 18 3 19 4 20 5 21 6 22 7 23 8 24 9 25 10 26 11
REMARK SMILES IDX 27 12 28 13 29 14 30 15 31 16 32 17 15 18 14 19 13 20 12 21
REMARK SMILES IDX 11 22 10 23 9 24 8 25 7 26 6 27 5 28 4 29 3 30 2 31 1 32
REMARK H PARENT
REMARK Flexibility Score: inf
ROOT
ATOM      1  C   UNL     1     -14.432 -33.053  20.360  1.00  0.00     0.000 C 
ENDROOT
BRANCH   1   2
ATOM      2  C   UNL     1     -13.911 -33.993  19.254  1.00  0.00     0.000 C 
BRANCH   2   3
ATOM      3  C   UNL     1     -12.426 -33.762  18.934  1.00  0.00     0.000 C 
BRANCH   3   4
ATOM      4  C   UNL     1     -11.862 -32.499  19.604  1.00  0.00     0.000 C 
BRANCH   4   5
ATOM      5  C   UNL     1     -11.119 -31.629  18.581  1.00  0.00     0.000 C 
BRANCH   5   6
ATOM      6  C   UNL     1     -11.216 -30.128  18.897  1.00  0.00     0.000 C 
BRANCH   6   7
ATOM      7  C   UNL     1     -10.065 -29.313  18.281  1.00  0.00     0.000 C 
BRANCH   7   8
ATOM      8  C   UNL     1     -10.575 -28.242  17.293  1.00  0.00     0.000 C 
BRANCH   8   9
ATOM      9  C   UNL     1     -11.200 -27.011  17.975  1.00  0.00     0.000 C 
BRANCH   9  10
ATOM     10  C   UNL     1     -10.261 -26.342  18.986  1.00  0.00     0.000 C 
BRANCH  10  11
ATOM     11  C   UNL     1      -9.801 -24.960  18.498  1.00  0.00     0.000 C 
BRANCH  11  12
ATOM     12  C   UNL     1     -10.392 -24.582  17.126  1.00  0.00     0.000 C 
BRANCH  12  13
ATOM     13  C   UNL     1     -10.314 -23.082  16.775  1.00  0.00     0.006 C 
BRANCH  13  14
ATOM     14  C   UNL     1     -11.152 -22.173  17.686  1.00  0.00     0.053 C 
BRANCH  14  15
ATOM     15  C   UNL     1     -10.307 -21.449  18.689  1.00  0.00     0.041 C 
ATOM     16  O   UNL     1      -9.307 -20.784  18.311  1.00  0.00    -0.550 OA
ATOM     17  O   UNL     1     -10.613 -21.524  20.043  1.00  0.00    -0.550 OA
ENDBRANCH  14  15
ENDBRANCH  13  14
ENDBRANCH  12  13
ENDBRANCH  11  12
ENDBRANCH  10  11
ENDBRANCH   9  10
ENDBRANCH   8   9
ENDBRANCH   7   8
ENDBRANCH   6   7
ENDBRANCH   5   6
ENDBRANCH   4   5
ENDBRANCH   3   4
ENDBRANCH   2   3
ENDBRANCH   1   2
BRANCH   1  18
ATOM     18  C   UNL     1     -15.741 -33.556  21.004  1.00  0.00     0.000 C 
BRANCH  18  19
ATOM     19  C   UNL     1     -16.475 -32.495  21.847  1.00  0.00     0.000 C 
BRANCH  19  20
ATOM     20  C   UNL     1     -17.980 -32.357  21.567  1.00  0.00     0.000 C 
BRANCH  20  21
ATOM     21  C   UNL     1     -18.461 -33.279  20.433  1.00  0.00     0.000 C 
BRANCH  21  22
ATOM     22  C   UNL     1     -19.591 -32.658  19.592  1.00  0.00     0.000 C 
BRANCH  22  23
ATOM     23  C   UNL     1     -20.043 -31.253  20.032  1.00  0.00     0.000 C 
BRANCH  23  24
ATOM     24  C   UNL     1     -19.956 -30.212  18.901  1.00  0.00    -0.000 C 
BRANCH  24  25
ATOM     25  C   UNL     1     -18.741 -29.282  19.054  1.00  0.00    -0.000 C 
BRANCH  25  26
ATOM     26  C   UNL     1     -17.972 -29.091  17.734  1.00  0.00    -0.000 C 
BRANCH  26  27
ATOM     27  C   UNL     1     -16.462 -29.328  17.895  1.00  0.00    -0.000 C 
BRANCH  27  28
ATOM     28  C   UNL     1     -16.139 -30.726  18.449  1.00  0.00    -0.000 C 
BRANCH  28  29
ATOM     29  C   UNL     1     -16.567 -31.848  17.479  1.00  0.00    -0.000 C 
BRANCH  29  30
ATOM     30  C   UNL     1     -15.891 -31.762  16.100  1.00  0.00    -0.000 C 
BRANCH  30  31
ATOM     31  C   UNL     1     -14.377 -32.022  16.158  1.00  0.00    -0.003 C 
ATOM     32  C   UNL     1     -13.590 -30.726  15.978  1.00  0.00     0.004 C 
ENDBRANCH  30  31
ENDBRANCH  29  30
ENDBRANCH  28  29
ENDBRANCH  27  28
ENDBRANCH  26  27
ENDBRANCH  25  26
ENDBRANCH  24  25
ENDBRANCH  23  24
ENDBRANCH  22  23
ENDBRANCH  21  22
ENDBRANCH  20  21
ENDBRANCH  19  20
ENDBRANCH  18  19
ENDBRANCH   1  18
TORSDOF 28
ENDMDL
MODEL 9
REMARK VINA RESULT:    -4.282      2.648     10.044
REMARK INTER + INTRA:         -16.026
REMARK INTER:                 -12.470
REMARK INTRA:                  -3.556
REMARK UNBOUND:                -4.735
REMARK SMILES CCCCCCCCCCCCCCCCCCCCCCCCCCCCCC(=O)[O-]
REMARK SMILES IDX 16 1 17 2 18 3 19 4 20 5 21 6 22 7 23 8 24 9 25 10 26 11
REMARK SMILES IDX 27 12 28 13 29 14 30 15 31 16 32 17 15 18 14 19 13 20 12 21
REMARK SMILES IDX 11 22 10 23 9 24 8 25 7 26 6 27 5 28 4 29 3 30 2 31 1 32
REMARK H PARENT
REMARK Flexibility Score: inf
ROOT
ATOM      1  C   UNL     1     -13.367 -28.482  18.488  1.00  0.00     0.000 C 
ENDROOT
BRANCH   1   2
ATOM      2  C   UNL     1     -13.492 -29.766  17.642  1.00  0.00     0.000 C 
BRANCH   2   3
ATOM      3  C   UNL     1     -13.634 -31.030  18.506  1.00  0.00     0.000 C 
BRANCH   3   4
ATOM      4  C   UNL     1     -15.027 -31.669  18.401  1.00  0.00     0.000 C 
BRANCH   4   5
ATOM      5  C   UNL     1     -15.715 -31.259  17.091  1.00  0.00     0.000 C 
BRANCH   5   6
ATOM      6  C   UNL     1     -17.000 -32.057  16.820  1.00  0.00     0.000 C 
BRANCH   6   7
ATOM      7  C   UNL     1     -17.278 -33.123  17.894  1.00  0.00     0.000 C 
BRANCH   7   8
ATOM      8  C   UNL     1     -18.728 -33.648  17.828  1.00  0.00     0.000 C 
BRANCH   8   9
ATOM      9  C   UNL     1     -19.524 -33.453  19.133  1.00  0.00     0.000 C 
BRANCH   9  10
ATOM     10  C   UNL     1     -18.645 -33.018  20.312  1.00  0.00     0.000 C 
BRANCH  10  11
ATOM     11  C   UNL     1     -18.926 -31.562  20.715  1.00  0.00     0.000 C 
BRANCH  11  12
ATOM     12  C   UNL     1     -19.987 -30.887  19.823  1.00  0.00     0.000 C 
BRANCH  12  13
ATOM     13  C   UNL     1     -19.439 -29.819  18.856  1.00  0.00     0.006 C 
BRANCH  13  14
ATOM     14  C   UNL     1     -17.995 -29.382  19.144  1.00  0.00     0.053 C 
BRANCH  14  15
ATOM     15  C   UNL     1     -17.767 -27.939  18.814  1.00  0.00     0.041 C 
ATOM     16  O   UNL     1     -18.623 -27.074  19.137  1.00  0.00    -0.550 OA
ATOM     17  O   UNL     1     -16.618 -27.552  18.136  1.00  0.00    -0.550 OA
ENDBRANCH  14  15
ENDBRANCH  13  14
ENDBRANCH  12  13
ENDBRANCH  11  12
ENDBRANCH  10  11
ENDBRANCH   9  10
ENDBRANCH   8   9
ENDBRANCH   7   8
ENDBRANCH   6   7
ENDBRANCH   5   6
ENDBRANCH   4   5
ENDBRANCH   3   4
ENDBRANCH   2   3
ENDBRANCH   1   2
BRANCH   1  18
ATOM     18  C   UNL     1     -12.036 -27.737  18.248  1.00  0.00     0.000 C 
BRANCH  18  19
ATOM     19  C   UNL     1     -10.917 -28.621  17.665  1.00  0.00     0.000 C 
BRANCH  19  20
ATOM     20  C   UNL     1      -9.721 -28.871  18.598  1.00  0.00     0.000 C 
BRANCH  20  21
ATOM     21  C   UNL     1      -9.978 -28.386  20.036  1.00  0.00     0.000 C 
BRANCH  21  22
ATOM     22  C   UNL     1      -9.112 -27.173  20.424  1.00  0.00     0.000 C 
BRANCH  22  23
ATOM     23  C   UNL     1      -9.618 -25.813  19.910  1.00  0.00     0.000 C 
BRANCH  23  24
ATOM     24  C   UNL     1      -8.626 -24.665  20.171  1.00  0.00    -0.000 C 
BRANCH  24  25
ATOM     25  C   UNL     1      -8.600 -23.640  19.025  1.00  0.00    -0.000 C 
BRANCH  25  26
ATOM     26  C   UNL     1      -9.551 -24.017  17.874  1.00  0.00    -0.000 C 
BRANCH  26  27
ATOM     27  C   UNL     1      -9.934 -22.805  17.009  1.00  0.00    -0.000 C 
BRANCH  27  28
ATOM     28  C   UNL     1     -11.428 -22.455  17.112  1.00  0.00    -0.000 C 
BRANCH  28  29
ATOM     29  C   UNL     1     -11.657 -21.047  17.700  1.00  0.00    -0.000 C 
BRANCH  29  30
ATOM     30  C   UNL     1     -10.367 -20.368  18.192  1.00  0.00    -0.000 C 
BRANCH  30  31
ATOM     31  C   UNL     1     -10.365 -20.113  19.708  1.00  0.00    -0.003 C 
ATOM     32  C   UNL     1     -11.106 -21.221  20.453  1.00  0.00     0.004 C 
ENDBRANCH  30  31
ENDBRANCH  29  30
ENDBRANCH  28  29
ENDBRANCH  27  28
ENDBRANCH  26  27
ENDBRANCH  25  26
ENDBRANCH  24  25
ENDBRANCH  23  24
ENDBRANCH  22  23
ENDBRANCH  21  22
ENDBRANCH  20  21
ENDBRANCH  19  20
ENDBRANCH  18  19
ENDBRANCH   1  18
TORSDOF 28
ENDMDL
