MODEL 1
REMARK VINA RESULT:    -5.845      0.000      0.000
REMARK INTER + INTRA:         -12.418
REMARK INTER:                 -10.628
REMARK INTRA:                  -1.789
REMARK UNBOUND:                -1.789
REMARK SMILES CCCCCCCCCCCCCCCC(=O)[O-]
REMARK SMILES IDX 9 1 10 2 11 3 12 4 13 5 14 6 15 7 16 8 17 9 18 10 8 11 7 12
REMARK SMILES IDX 6 13 5 14 4 15 3 16 2 17 1 18
REMARK H PARENT
REMARK Flexibility Score: inf
ROOT
ATOM      1  C   UNL     1       6.506  14.890   0.159  1.00  0.00     0.000 C 
ENDROOT
BRANCH   1   2
ATOM      2  C   UNL     1       5.017  14.498   0.282  1.00  0.00     0.000 C 
BRANCH   2   3
ATOM      3  C   UNL     1       4.819  13.200   1.084  1.00  0.00     0.000 C 
BRANCH   3   4
ATOM      4  C   UNL     1       3.585  13.252   1.999  1.00  0.00     0.000 C 
BRANCH   4   5
ATOM      5  C   UNL     1       2.383  13.940   1.337  1.00  0.00     0.000 C 
BRANCH   5   6
ATOM      6  C   UNL     1       1.367  14.404   2.391  1.00  0.00     0.006 C 
BRANCH   6   7
ATOM      7  C   UNL     1       0.063  13.596   2.340  1.00  0.00     0.053 C 
BRANCH   7   8
ATOM      8  C   UNL     1      -0.947  14.110   3.320  1.00  0.00     0.041 C 
ATOM      9  O   UNL     1      -0.616  14.334   4.514  1.00  0.00    -0.550 OA
ATOM     10  O   UNL     1      -2.262  14.312   2.921  1.00  0.00    -0.550 OA
ENDBRANCH   7   8
ENDBRANCH   6   7
ENDBRANCH   5   6
ENDBRANCH   4   5
ENDBRANCH   3   4
ENDBRANCH   2   3
ENDBRANCH   1   2
BRANCH   1  11
ATOM     11  C   UNL     1       7.468  13.886   0.822  1.00  0.00     0.000 C 
BRANCH  11  12
ATOM     12  C   UNL     1       8.739  14.508   1.431  1.00  0.00    -0.000 C 
BRANCH  12  13
ATOM     13  C   UNL     1       8.561  15.105   2.840  1.00  0.00    -0.000 C 
BRANCH  13  14
ATOM     14  C   UNL     1       7.168  14.833   3.433  1.00  0.00    -0.000 C 
BRANCH  14  15
ATOM     15  C   UNL     1       6.485  16.114   3.943  1.00  0.00    -0.000 C 
BRANCH  15  16
ATOM     16  C   UNL     1       5.083  16.314   3.341  1.00  0.00    -0.000 C 
BRANCH  16  17
ATOM     17  C   UNL     1       3.996  16.459   4.418  1.00  0.00    -0.003 C 
ATOM     18  C   UNL     1       3.799  15.184   5.237  1.00  0.00     0.004 C 
ENDBRANCH  16  17
ENDBRANCH  15  16
ENDBRANCH  14  15
ENDBRANCH  13  14
ENDBRANCH  12  13
ENDBRANCH  11  12
ENDBRANCH   1  11
TORSDOF 14
ENDMDL
MODEL 2
REMARK VINA RESULT:    -5.717      4.540      7.699
REMARK INTER + INTRA:         -12.185
REMARK INTER:                 -10.378
REMARK INTRA:                  -1.807
REMARK UNBOUND:                -1.789
REMARK SMILES CCCCCCCCCCCCCCCC(=O)[O-]
REMARK SMILES IDX 9 1 10 2 11 3 12 4 13 5 14 6 15 7 16 8 17 9 18 10 8 11 7 12
REMARK SMILES IDX 6 13 5 14 4 15 3 16 2 17 1 18
REMARK H PARENT
REMARK Flexibility Score: inf
ROOT
ATOM      1  C   UNL     1       7.433  15.828   3.710  1.00  0.00     0.000 C 
ENDROOT
BRANCH   1   2
ATOM      2  C   UNL     1       7.998  14.600   2.963  1.00  0.00     0.000 C 
BRANCH   2   3
ATOM      3  C   UNL     1       8.167  14.860   1.456  1.00  0.00     0.000 C 
BRANCH   3   4
ATOM      4  C   UNL     1       8.665  13.622   0.693  1.00  0.00     0.000 C 
BRANCH   4   5
ATOM      5  C   UNL     1      10.043  13.834   0.051  1.00  0.00     0.000 C 
BRANCH   5   6
ATOM      6  C   UNL     1      11.149  13.851   1.116  1.00  0.00     0.006 C 
BRANCH   6   7
ATOM      7  C   UNL     1      12.166  14.976   0.882  1.00  0.00     0.053 C 
BRANCH   7   8
ATOM      8  C   UNL     1      11.492  16.303   0.707  1.00  0.00     0.041 C 
ATOM      9  O   UNL     1      10.978  16.890   1.696  1.00  0.00    -0.550 OA
ATOM     10  O   UNL     1      11.405  16.877  -0.555  1.00  0.00    -0.550 OA
ENDBRANCH   7   8
ENDBRANCH   6   7
ENDBRANCH   5   6
ENDBRANCH   4   5
ENDBRANCH   3   4
ENDBRANCH   2   3
ENDBRANCH   1   2
BRANCH   1  11
ATOM     11  C   UNL     1       5.942  16.094   3.426  1.00  0.00     0.000 C 
BRANCH  11  12
ATOM     12  C   UNL     1       4.997  15.833   4.614  1.00  0.00    -0.000 C 
BRANCH  12  13
ATOM     13  C   UNL     1       3.927  14.753   4.371  1.00  0.00    -0.000 C 
BRANCH  13  14
ATOM     14  C   UNL     1       2.910  15.152   3.287  1.00  0.00    -0.000 C 
BRANCH  14  15
ATOM     15  C   UNL     1       2.905  14.177   2.097  1.00  0.00    -0.000 C 
BRANCH  15  16
ATOM     16  C   UNL     1       3.930  13.040   2.261  1.00  0.00    -0.000 C 
BRANCH  16  17
ATOM     17  C   UNL     1       5.030  13.082   1.188  1.00  0.00    -0.003 C 
ATOM     18  C   UNL     1       4.853  14.235   0.201  1.00  0.00     0.004 C 
ENDBRANCH  16  17
ENDBRANCH  15  16
ENDBRANCH  14  15
ENDBRANCH  13  14
ENDBRANCH  12  13
ENDBRANCH  11  12
ENDBRANCH   1  11
TORSDOF 14
ENDMDL
MODEL 3
REMARK VINA RESULT:    -5.693      1.083      1.666
REMARK INTER + INTRA:         -12.142
REMARK INTER:                 -10.738
REMARK INTRA:                  -1.403
REMARK UNBOUND:                -1.789
REMARK SMILES CCCCCCCCCCCCCCCC(=O)[O-]
REMARK SMILES IDX 9 1 10 2 11 3 12 4 13 5 14 6 15 7 16 8 17 9 18 10 8 11 7 12
REMARK SMILES IDX 6 13 5 14 4 15 3 16 2 17 1 18
REMARK H PARENT
REMARK Flexibility Score: inf
ROOT
ATOM      1  C   UNL     1       5.195  14.729   0.046  1.00  0.00     0.000 C 
ENDROOT
BRANCH   1   2
ATOM      2  C   UNL     1       3.898  15.232   0.715  1.00  0.00     0.000 C 
BRANCH   2   3
ATOM      3  C   UNL     1       2.737  14.232   0.565  1.00  0.00     0.000 C 
BRANCH   3   4
ATOM      4  C   UNL     1       2.116  13.838   1.914  1.00  0.00     0.000 C 
BRANCH   4   5
ATOM      5  C   UNL     1       0.583  13.919   1.908  1.00  0.00     0.000 C 
BRANCH   5   6
ATOM      6  C   UNL     1       0.060  14.524   3.220  1.00  0.00     0.006 C 
BRANCH   6   7
ATOM      7  C   UNL     1      -1.008  13.644   3.882  1.00  0.00     0.053 C 
BRANCH   7   8
ATOM      8  C   UNL     1      -2.384  14.210   3.701  1.00  0.00     0.041 C 
ATOM      9  O   UNL     1      -2.969  14.113   2.591  1.00  0.00    -0.550 OA
ATOM     10  O   UNL     1      -3.006  14.873   4.751  1.00  0.00    -0.550 OA
ENDBRANCH   7   8
ENDBRANCH   6   7
ENDBRANCH   5   6
ENDBRANCH   4   5
ENDBRANCH   3   4
ENDBRANCH   2   3
ENDBRANCH   1   2
BRANCH   1  11
ATOM     11  C   UNL     1       5.864  13.558   0.791  1.00  0.00     0.000 C 
BRANCH  11  12
ATOM     12  C   UNL     1       7.404  13.559   0.757  1.00  0.00    -0.000 C 
BRANCH  12  13
ATOM     13  C   UNL     1       8.071  14.734   1.496  1.00  0.00    -0.000 C 
BRANCH  13  14
ATOM     14  C   UNL     1       7.908  14.648   3.024  1.00  0.00    -0.000 C 
BRANCH  14  15
ATOM     15  C   UNL     1       6.924  15.696   3.571  1.00  0.00    -0.000 C 
BRANCH  15  16
ATOM     16  C   UNL     1       5.591  15.075   4.022  1.00  0.00    -0.000 C 
BRANCH  16  17
ATOM     17  C   UNL     1       4.724  16.060   4.822  1.00  0.00    -0.003 C 
ATOM     18  C   UNL     1       3.289  15.571   5.010  1.00  0.00     0.004 C 
ENDBRANCH  16  17
ENDBRANCH  15  16
ENDBRANCH  14  15
ENDBRANCH  13  14
ENDBRANCH  12  13
ENDBRANCH  11  12
ENDBRANCH   1  11
TORSDOF 14
ENDMDL
MODEL 4
REMARK VINA RESULT:    -5.592      5.217      8.292
REMARK INTER + INTRA:         -11.959
REMARK INTER:                 -10.371
REMARK INTRA:                  -1.588
REMARK UNBOUND:                -1.789
REMARK SMILES CCCCCCCCCCCCCCCC(=O)[O-]
REMARK SMILES IDX 9 1 10 2 11 3 12 4 13 5 14 6 15 7 16 8 17 9 18 10 8 11 7 12
REMARK SMILES IDX 6 13 5 14 4 15 3 16 2 17 1 18
REMARK H PARENT
REMARK Flexibility Score: inf
ROOT
ATOM      1  C   UNL     1       7.675  15.868   3.647  1.00  0.00     0.000 C 
ENDROOT
BRANCH   1   2
ATOM      2  C   UNL     1       8.216  14.474   3.263  1.00  0.00     0.000 C 
BRANCH   2   3
ATOM      3  C   UNL     1       8.456  14.336   1.749  1.00  0.00     0.000 C 
BRANCH   3   4
ATOM      4  C   UNL     1       9.939  14.130   1.400  1.00  0.00     0.000 C 
BRANCH   4   5
ATOM      5  C   UNL     1      10.684  15.453   1.172  1.00  0.00     0.000 C 
BRANCH   5   6
ATOM      6  C   UNL     1      12.132  15.197   0.726  1.00  0.00     0.006 C 
BRANCH   6   7
ATOM      7  C   UNL     1      12.271  13.904  -0.088  1.00  0.00     0.053 C 
BRANCH   7   8
ATOM      8  C   UNL     1      12.284  14.176  -1.562  1.00  0.00     0.041 C 
ATOM      9  O   UNL     1      13.376  14.252  -2.183  1.00  0.00    -0.550 OA
ATOM     10  O   UNL     1      11.090  14.375  -2.242  1.00  0.00    -0.550 OA
ENDBRANCH   7   8
ENDBRANCH   6   7
ENDBRANCH   5   6
ENDBRANCH   4   5
ENDBRANCH   3   4
ENDBRANCH   2   3
ENDBRANCH   1   2
BRANCH   1  11
ATOM     11  C   UNL     1       6.199  16.087   3.263  1.00  0.00     0.000 C 
BRANCH  11  12
ATOM     12  C   UNL     1       5.195  15.922   4.419  1.00  0.00    -0.000 C 
BRANCH  12  13
ATOM     13  C   UNL     1       4.208  14.750   4.265  1.00  0.00    -0.000 C 
BRANCH  13  14
ATOM     14  C   UNL     1       3.048  15.068   3.305  1.00  0.00    -0.000 C 
BRANCH  14  15
ATOM     15  C   UNL     1       3.093  14.217   2.025  1.00  0.00    -0.000 C 
BRANCH  15  16
ATOM     16  C   UNL     1       4.139  13.091   2.101  1.00  0.00    -0.000 C 
BRANCH  16  17
ATOM     17  C   UNL     1       5.156  13.155   0.951  1.00  0.00    -0.003 C 
ATOM     18  C   UNL     1       5.120  14.485   0.200  1.00  0.00     0.004 C 
ENDBRANCH  16  17
ENDBRANCH  15  16
ENDBRANCH  14  15
ENDBRANCH  13  14
ENDBRANCH  12  13
ENDBRANCH  11  12
ENDBRANCH   1  11
TORSDOF 14
ENDMDL
MODEL 5
REMARK VINA RESULT:    -5.589      3.119      4.700
REMARK INTER + INTRA:         -11.952
REMARK INTER:                 -10.848
REMARK INTRA:                  -1.104
REMARK UNBOUND:                -1.789
REMARK SMILES CCCCCCCCCCCCCCCC(=O)[O-]
REMARK SMILES IDX 9 1 10 2 11 3 12 4 13 5 14 6 15 7 16 8 17 9 18 10 8 11 7 12
REMARK SMILES IDX 6 13 5 14 4 15 3 16 2 17 1 18
REMARK H PARENT
REMARK Flexibility Score: inf
ROOT
ATOM      1  C   UNL     1       6.986  14.604   1.407  1.00  0.00     0.000 C 
ENDROOT
BRANCH   1   2
ATOM      2  C   UNL     1       5.829  14.793   0.402  1.00  0.00     0.000 C 
BRANCH   2   3
ATOM      3  C   UNL     1       4.941  13.542   0.291  1.00  0.00     0.000 C 
BRANCH   3   4
ATOM      4  C   UNL     1       4.334  13.124   1.640  1.00  0.00     0.000 C 
BRANCH   4   5
ATOM      5  C   UNL     1       3.000  13.825   1.933  1.00  0.00     0.000 C 
BRANCH   5   6
ATOM      6  C   UNL     1       3.173  14.909   3.008  1.00  0.00     0.006 C 
BRANCH   6   7
ATOM      7  C   UNL     1       4.321  14.591   3.975  1.00  0.00     0.053 C 
BRANCH   7   8
ATOM      8  C   UNL     1       4.876  15.832   4.605  1.00  0.00     0.041 C 
ATOM      9  O   UNL     1       6.067  16.177   4.387  1.00  0.00    -0.550 OA
ATOM     10  O   UNL     1       4.085  16.591   5.457  1.00  0.00    -0.550 OA
ENDBRANCH   7   8
ENDBRANCH   6   7
ENDBRANCH   5   6
ENDBRANCH   4   5
ENDBRANCH   3   4
ENDBRANCH   2   3
ENDBRANCH   1   2
BRANCH   1  11
ATOM     11  C   UNL     1       8.079  13.634   0.917  1.00  0.00     0.000 C 
BRANCH  11  12
ATOM     12  C   UNL     1       9.369  14.310   0.413  1.00  0.00    -0.000 C 
BRANCH  12  13
ATOM     13  C   UNL     1       9.974  15.355   1.368  1.00  0.00    -0.000 C 
BRANCH  13  14
ATOM     14  C   UNL     1      11.312  15.923   0.862  1.00  0.00    -0.000 C 
BRANCH  14  15
ATOM     15  C   UNL     1      11.527  17.387   1.282  1.00  0.00    -0.000 C 
BRANCH  15  16
ATOM     16  C   UNL     1      10.690  17.776   2.514  1.00  0.00    -0.000 C 
BRANCH  16  17
ATOM     17  C   UNL     1      11.290  18.968   3.278  1.00  0.00    -0.003 C 
ATOM     18  C   UNL     1      11.214  18.798   4.795  1.00  0.00     0.004 C 
ENDBRANCH  16  17
ENDBRANCH  15  16
ENDBRANCH  14  15
ENDBRANCH  13  14
ENDBRANCH  12  13
ENDBRANCH  11  12
ENDBRANCH   1  11
TORSDOF 14
ENDMDL
MODEL 6
REMARK VINA RESULT:    -5.585      1.855      4.945
REMARK INTER + INTRA:         -11.945
REMARK INTER:                 -10.299
REMARK INTRA:                  -1.646
REMARK UNBOUND:                -1.789
REMARK SMILES CCCCCCCCCCCCCCCC(=O)[O-]
REMARK SMILES IDX 9 1 10 2 11 3 12 4 13 5 14 6 15 7 16 8 17 9 18 10 8 11 7 12
REMARK SMILES IDX 6 13 5 14 4 15 3 16 2 17 1 18
REMARK H PARENT
REMARK Flexibility Score: inf
ROOT
ATOM      1  C   UNL     1       7.248  13.410   0.914  1.00  0.00     0.000 C 
ENDROOT
BRANCH   1   2
ATOM      2  C   UNL     1       8.228  14.582   0.692  1.00  0.00     0.000 C 
BRANCH   2   3
ATOM      3  C   UNL     1       9.118  14.841   1.920  1.00  0.00     0.000 C 
BRANCH   3   4
ATOM      4  C   UNL     1       8.375  14.620   3.247  1.00  0.00     0.000 C 
BRANCH   4   5
ATOM      5  C   UNL     1       7.434  15.780   3.602  1.00  0.00     0.000 C 
BRANCH   5   6
ATOM      6  C   UNL     1       6.011  15.270   3.874  1.00  0.00     0.006 C 
BRANCH   6   7
ATOM      7  C   UNL     1       5.013  16.416   4.091  1.00  0.00     0.053 C 
BRANCH   7   8
ATOM      8  C   UNL     1       4.011  16.084   5.154  1.00  0.00     0.041 C 
ATOM      9  O   UNL     1       3.920  16.798   6.187  1.00  0.00    -0.550 OA
ATOM     10  O   UNL     1       3.199  14.965   5.018  1.00  0.00    -0.550 OA
ENDBRANCH   7   8
ENDBRANCH   6   7
ENDBRANCH   5   6
ENDBRANCH   4   5
ENDBRANCH   3   4
ENDBRANCH   2   3
ENDBRANCH   1   2
BRANCH   1  11
ATOM     11  C   UNL     1       5.851  13.646   0.309  1.00  0.00     0.000 C 
BRANCH  11  12
ATOM     12  C   UNL     1       5.399  15.118   0.274  1.00  0.00    -0.000 C 
BRANCH  12  13
ATOM     13  C   UNL     1       3.926  15.357   0.655  1.00  0.00    -0.000 C 
BRANCH  13  14
ATOM     14  C   UNL     1       3.328  14.204   1.480  1.00  0.00    -0.000 C 
BRANCH  14  15
ATOM     15  C   UNL     1       1.843  13.962   1.161  1.00  0.00    -0.000 C 
BRANCH  15  16
ATOM     16  C   UNL     1       0.930  14.215   2.374  1.00  0.00    -0.000 C 
BRANCH  16  17
ATOM     17  C   UNL     1      -0.365  13.389   2.318  1.00  0.00    -0.003 C 
ATOM     18  C   UNL     1      -1.620  14.238   2.515  1.00  0.00     0.004 C 
ENDBRANCH  16  17
ENDBRANCH  15  16
ENDBRANCH  14  15
ENDBRANCH  13  14
ENDBRANCH  12  13
ENDBRANCH  11  12
ENDBRANCH   1  11
TORSDOF 14
ENDMDL
MODEL 7
REMARK VINA RESULT:    -5.560      4.820      7.440
REMARK INTER + INTRA:         -11.899
REMARK INTER:                 -10.214
REMARK INTRA:                  -1.686
REMARK UNBOUND:                -1.789
REMARK SMILES CCCCCCCCCCCCCCCC(=O)[O-]
REMARK SMILES IDX 9 1 10 2 11 3 12 4 13 5 14 6 15 7 16 8 17 9 18 10 8 11 7 12
REMARK SMILES IDX 6 13 5 14 4 15 3 16 2 17 1 18
REMARK H PARENT
REMARK Flexibility Score: inf
ROOT
ATOM      1  C   UNL     1       5.038  14.631   0.247  1.00  0.00     0.000 C 
ENDROOT
BRANCH   1   2
ATOM      2  C   UNL     1       6.547  14.941   0.348  1.00  0.00     0.000 C 
BRANCH   2   3
ATOM      3  C   UNL     1       7.322  13.840   1.092  1.00  0.00     0.000 C 
BRANCH   3   4
ATOM      4  C   UNL     1       8.634  13.458   0.388  1.00  0.00     0.000 C 
BRANCH   4   5
ATOM      5  C   UNL     1       9.876  13.778   1.231  1.00  0.00     0.000 C 
BRANCH   5   6
ATOM      6  C   UNL     1      10.098  15.295   1.330  1.00  0.00     0.006 C 
BRANCH   6   7
ATOM      7  C   UNL     1      11.477  15.717   0.806  1.00  0.00     0.053 C 
BRANCH   7   8
ATOM      8  C   UNL     1      11.406  16.211  -0.607  1.00  0.00     0.041 C 
ATOM      9  O   UNL     1      11.251  15.399  -1.556  1.00  0.00    -0.550 OA
ATOM     10  O   UNL     1      11.541  17.567  -0.876  1.00  0.00    -0.550 OA
ENDBRANCH   7   8
ENDBRANCH   6   7
ENDBRANCH   5   6
ENDBRANCH   4   5
ENDBRANCH   3   4
ENDBRANCH   2   3
ENDBRANCH   1   2
BRANCH   1  11
ATOM     11  C   UNL     1       4.653  13.242   0.793  1.00  0.00     0.000 C 
BRANCH  11  12
ATOM     12  C   UNL     1       3.876  13.259   2.123  1.00  0.00    -0.000 C 
BRANCH  12  13
ATOM     13  C   UNL     1       2.681  14.229   2.167  1.00  0.00    -0.000 C 
BRANCH  13  14
ATOM     14  C   UNL     1       2.866  15.359   3.195  1.00  0.00    -0.000 C 
BRANCH  14  15
ATOM     15  C   UNL     1       3.591  14.886   4.466  1.00  0.00    -0.000 C 
BRANCH  15  16
ATOM     16  C   UNL     1       4.783  15.786   4.835  1.00  0.00    -0.000 C 
BRANCH  16  17
ATOM     17  C   UNL     1       5.629  16.173   3.612  1.00  0.00    -0.003 C 
ATOM     18  C   UNL     1       7.131  16.122   3.888  1.00  0.00     0.004 C 
ENDBRANCH  16  17
ENDBRANCH  15  16
ENDBRANCH  14  15
ENDBRANCH  13  14
ENDBRANCH  12  13
ENDBRANCH  11  12
ENDBRANCH   1  11
TORSDOF 14
ENDMDL
MODEL 8
REMARK VINA RESULT:    -5.553      4.651      7.705
REMARK INTER + INTRA:         -11.887
REMARK INTER:                 -10.539
REMARK INTRA:                  -1.348
REMARK UNBOUND:                -1.789
REMARK SMILES CCCCCCCCCCCCCCCC(=O)[O-]
REMARK SMILES IDX 9 1 10 2 11 3 12 4 13 5 14 6 15 7 16 8 17 9 18 10 8 11 7 12
REMARK SMILES IDX 6 13 5 14 4 15 3 16 2 17 1 18
REMARK H PARENT
REMARK Flexibility Score: inf
ROOT
ATOM      1  C   UNL     1       7.667  14.398   1.458  1.00  0.00     0.000 C 
ENDROOT
BRANCH   1   2
ATOM      2  C   UNL     1       8.750  13.584   0.716  1.00  0.00     0.000 C 
BRANCH   2   3
ATOM      3  C   UNL     1      10.116  13.648   1.423  1.00  0.00     0.000 C 
BRANCH   3   4
ATOM      4  C   UNL     1      11.267  13.972   0.458  1.00  0.00     0.000 C 
BRANCH   4   5
ATOM      5  C   UNL     1      11.966  15.298   0.790  1.00  0.00     0.000 C 
BRANCH   5   6
ATOM      6  C   UNL     1      10.943  16.378   1.171  1.00  0.00     0.006 C 
BRANCH   6   7
ATOM      7  C   UNL     1      11.603  17.736   1.445  1.00  0.00     0.053 C 
BRANCH   7   8
ATOM      8  C   UNL     1      11.187  18.298   2.770  1.00  0.00     0.041 C 
ATOM      9  O   UNL     1      10.114  17.921   3.310  1.00  0.00    -0.550 OA
ATOM     10  O   UNL     1      11.969  19.261   3.393  1.00  0.00    -0.550 OA
ENDBRANCH   7   8
ENDBRANCH   6   7
ENDBRANCH   5   6
ENDBRANCH   4   5
ENDBRANCH   3   4
ENDBRANCH   2   3
ENDBRANCH   1   2
BRANCH   1  11
ATOM     11  C   UNL     1       8.047  14.759   2.907  1.00  0.00     0.000 C 
BRANCH  11  12
ATOM     12  C   UNL     1       7.017  15.630   3.651  1.00  0.00    -0.000 C 
BRANCH  12  13
ATOM     13  C   UNL     1       5.735  15.946   2.857  1.00  0.00    -0.000 C 
BRANCH  13  14
ATOM     14  C   UNL     1       4.463  15.859   3.718  1.00  0.00    -0.000 C 
BRANCH  14  15
ATOM     15  C   UNL     1       3.467  14.812   3.192  1.00  0.00    -0.000 C 
BRANCH  15  16
ATOM     16  C   UNL     1       4.165  13.638   2.482  1.00  0.00    -0.000 C 
BRANCH  16  17
ATOM     17  C   UNL     1       3.789  13.543   0.995  1.00  0.00    -0.003 C 
ATOM     18  C   UNL     1       2.348  13.969   0.718  1.00  0.00     0.004 C 
ENDBRANCH  16  17
ENDBRANCH  15  16
ENDBRANCH  14  15
ENDBRANCH  13  14
ENDBRANCH  12  13
ENDBRANCH  11  12
ENDBRANCH   1  11
TORSDOF 14
ENDMDL
MODEL 9
REMARK VINA RESULT:    -5.527      2.811      4.988
REMARK INTER + INTRA:         -11.840
REMARK INTER:                 -10.427
REMARK INTRA:                  -1.413
REMARK UNBOUND:                -1.789
REMARK SMILES CCCCCCCCCCCCCCCC(=O)[O-]
REMARK SMILES IDX 9 1 10 2 11 3 12 4 13 5 14 6 15 7 16 8 17 9 18 10 8 11 7 12
REMARK SMILES IDX 6 13 5 14 4 15 3 16 2 17 1 18
REMARK H PARENT
REMARK Flexibility Score: inf
ROOT
ATOM      1  C   UNL     1       6.259  15.077   0.420  1.00  0.00     0.000 C 
ENDROOT
BRANCH   1   2
ATOM      2  C   UNL     1       4.831  14.514   0.251  1.00  0.00     0.000 C 
BRANCH   2   3
ATOM      3  C   UNL     1       4.662  13.138   0.920  1.00  0.00     0.000 C 
BRANCH   3   4
ATOM      4  C   UNL     1       3.533  13.121   1.963  1.00  0.00     0.000 C 
BRANCH   4   5
ATOM      5  C   UNL     1       2.757  14.445   2.021  1.00  0.00     0.000 C 
BRANCH   5   6
ATOM      6  C   UNL     1       2.871  15.088   3.411  1.00  0.00     0.006 C 
BRANCH   6   7
ATOM      7  C   UNL     1       4.158  14.679   4.139  1.00  0.00     0.053 C 
BRANCH   7   8
ATOM      8  C   UNL     1       4.842  15.858   4.761  1.00  0.00     0.041 C 
ATOM      9  O   UNL     1       5.957  16.247   4.326  1.00  0.00    -0.550 OA
ATOM     10  O   UNL     1       4.261  16.507   5.843  1.00  0.00    -0.550 OA
ENDBRANCH   7   8
ENDBRANCH   6   7
ENDBRANCH   5   6
ENDBRANCH   4   5
ENDBRANCH   3   4
ENDBRANCH   2   3
ENDBRANCH   1   2
BRANCH   1  11
ATOM     11  C   UNL     1       6.986  14.556   1.674  1.00  0.00     0.000 C 
BRANCH  11  12
ATOM     12  C   UNL     1       8.494  14.299   1.492  1.00  0.00    -0.000 C 
BRANCH  12  13
ATOM     13  C   UNL     1       8.875  13.532   0.212  1.00  0.00    -0.000 C 
BRANCH  13  14
ATOM     14  C   UNL     1      10.272  13.904  -0.314  1.00  0.00    -0.000 C 
BRANCH  14  15
ATOM     15  C   UNL     1      11.348  13.849   0.783  1.00  0.00    -0.000 C 
BRANCH  15  16
ATOM     16  C   UNL     1      12.168  15.148   0.871  1.00  0.00    -0.000 C 
BRANCH  16  17
ATOM     17  C   UNL     1      11.363  16.382   0.433  1.00  0.00    -0.003 C 
ATOM     18  C   UNL     1      11.438  17.528   1.441  1.00  0.00     0.004 C 
ENDBRANCH  16  17
ENDBRANCH  15  16
ENDBRANCH  14  15
ENDBRANCH  13  14
ENDBRANCH  12  13
ENDBRANCH  11  12
ENDBRANCH   1  11
TORSDOF 14
ENDMDL
