MODEL 1
REMARK VINA RESULT:    -3.389      0.000      0.000
REMARK INTER + INTRA:          -9.467
REMARK INTER:                  -7.350
REMARK INTRA:                  -2.116
REMARK UNBOUND:                -2.116
REMARK SMILES CCCCCCCCCCCCCCCCCCCCCC(=O)[O-]
REMARK SMILES IDX 12 1 11 2 10 3 9 4 8 5 7 6 6 7 5 8 4 9 3 10 2 11 1 12 13 13
REMARK SMILES IDX 14 14 15 15 16 16 17 17 18 18 19 19 20 20 21 21 22 22 23 23
REMARK SMILES IDX 24 24
REMARK H PARENT
REMARK Flexibility Score: inf
ROOT
ATOM      1  C   UNL     1      -3.496  13.936  -4.717  1.00  0.00     0.000 C 
ENDROOT
BRANCH   1   2
ATOM      2  C   UNL     1      -2.421  15.038  -4.721  1.00  0.00     0.000 C 
BRANCH   2   3
ATOM      3  C   UNL     1      -2.289  15.740  -6.080  1.00  0.00     0.000 C 
BRANCH   3   4
ATOM      4  C   UNL     1      -3.010  17.097  -6.070  1.00  0.00    -0.000 C 
BRANCH   4   5
ATOM      5  C   UNL     1      -2.236  18.170  -5.288  1.00  0.00    -0.000 C 
BRANCH   5   6
ATOM      6  C   UNL     1      -1.128  18.830  -6.125  1.00  0.00    -0.000 C 
BRANCH   6   7
ATOM      7  C   UNL     1       0.271  18.644  -5.514  1.00  0.00    -0.000 C 
BRANCH   7   8
ATOM      8  C   UNL     1       0.832  17.217  -5.681  1.00  0.00    -0.000 C 
BRANCH   8   9
ATOM      9  C   UNL     1       1.294  16.611  -4.344  1.00  0.00    -0.000 C 
BRANCH   9  10
ATOM     10  C   UNL     1       0.313  16.888  -3.191  1.00  0.00    -0.000 C 
BRANCH  10  11
ATOM     11  C   UNL     1      -0.070  15.651  -2.358  1.00  0.00    -0.003 C 
ATOM     12  C   UNL     1      -0.395  15.989  -0.904  1.00  0.00     0.004 C 
ENDBRANCH  10  11
ENDBRANCH   9  10
ENDBRANCH   8   9
ENDBRANCH   7   8
ENDBRANCH   6   7
ENDBRANCH   5   6
ENDBRANCH   4   5
ENDBRANCH   3   4
ENDBRANCH   2   3
ENDBRANCH   1   2
BRANCH   1  13
ATOM     13  C   UNL     1      -3.059  12.592  -5.336  1.00  0.00     0.000 C 
BRANCH  13  14
ATOM     14  C   UNL     1      -2.681  11.499  -4.321  1.00  0.00     0.000 C 
BRANCH  14  15
ATOM     15  C   UNL     1      -1.201  11.096  -4.402  1.00  0.00     0.000 C 
BRANCH  15  16
ATOM     16  C   UNL     1      -0.297  12.224  -3.893  1.00  0.00     0.000 C 
BRANCH  16  17
ATOM     17  C   UNL     1       0.688  11.704  -2.835  1.00  0.00     0.000 C 
BRANCH  17  18
ATOM     18  C   UNL     1       1.594  10.581  -3.368  1.00  0.00     0.000 C 
BRANCH  18  19
ATOM     19  C   UNL     1       2.811  10.253  -2.482  1.00  0.00     0.000 C 
BRANCH  19  20
ATOM     20  C   UNL     1       2.770   8.838  -1.866  1.00  0.00     0.006 C 
BRANCH  20  21
ATOM     21  C   UNL     1       2.898   8.862  -0.337  1.00  0.00     0.053 C 
BRANCH  21  22
ATOM     22  C   UNL     1       1.570   8.608   0.303  1.00  0.00     0.041 C 
ATOM     23  O   UNL     1       1.353   7.519   0.898  1.00  0.00    -0.550 OA
ATOM     24  O   UNL     1       0.555   9.550   0.198  1.00  0.00    -0.550 OA
ENDBRANCH  21  22
ENDBRANCH  20  21
ENDBRANCH  19  20
ENDBRANCH  18  19
ENDBRANCH  17  18
ENDBRANCH  16  17
ENDBRANCH  15  16
ENDBRANCH  14  15
ENDBRANCH  13  14
ENDBRANCH   1  13
TORSDOF 20
ENDMDL
MODEL 2
REMARK VINA RESULT:    -3.351      2.477      6.989
REMARK INTER + INTRA:          -9.386
REMARK INTER:                  -7.669
REMARK INTRA:                  -1.717
REMARK UNBOUND:                -2.116
REMARK SMILES CCCCCCCCCCCCCCCCCCCCCC(=O)[O-]
REMARK SMILES IDX 12 1 11 2 10 3 9 4 8 5 7 6 6 7 5 8 4 9 3 10 2 11 1 12 13 13
REMARK SMILES IDX 14 14 15 15 16 16 17 17 18 18 19 19 20 20 21 21 22 22 23 23
REMARK SMILES IDX 24 24
REMARK H PARENT
REMARK Flexibility Score: inf
ROOT
ATOM      1  C   UNL     1      -2.928  13.871  -4.934  1.00  0.00     0.000 C 
ENDROOT
BRANCH   1   2
ATOM      2  C   UNL     1      -2.968  12.375  -5.293  1.00  0.00     0.000 C 
BRANCH   2   3
ATOM      3  C   UNL     1      -1.854  11.567  -4.612  1.00  0.00     0.000 C 
BRANCH   3   4
ATOM      4  C   UNL     1      -0.882  12.493  -3.865  1.00  0.00    -0.000 C 
BRANCH   4   5
ATOM      5  C   UNL     1       0.573  12.004  -3.940  1.00  0.00    -0.000 C 
BRANCH   5   6
ATOM      6  C   UNL     1       0.925  11.015  -2.817  1.00  0.00    -0.000 C 
BRANCH   6   7
ATOM      7  C   UNL     1       2.213  10.225  -3.100  1.00  0.00    -0.000 C 
BRANCH   7   8
ATOM      8  C   UNL     1       2.796   9.531  -1.851  1.00  0.00    -0.000 C 
BRANCH   8   9
ATOM      9  C   UNL     1       1.808   9.530  -0.670  1.00  0.00    -0.000 C 
BRANCH   9  10
ATOM     10  C   UNL     1       1.151   8.157  -0.442  1.00  0.00    -0.000 C 
BRANCH  10  11
ATOM     11  C   UNL     1       1.551   7.461   0.872  1.00  0.00    -0.003 C 
ATOM     12  C   UNL     1       3.055   7.508   1.137  1.00  0.00     0.004 C 
ENDBRANCH  10  11
ENDBRANCH   9  10
ENDBRANCH   8   9
ENDBRANCH   7   8
ENDBRANCH   6   7
ENDBRANCH   5   6
ENDBRANCH   4   5
ENDBRANCH   3   4
ENDBRANCH   2   3
ENDBRANCH   1   2
BRANCH   1  13
ATOM     13  C   UNL     1      -2.621  14.821  -6.110  1.00  0.00     0.000 C 
BRANCH  13  14
ATOM     14  C   UNL     1      -2.695  16.320  -5.774  1.00  0.00     0.000 C 
BRANCH  14  15
ATOM     15  C   UNL     1      -1.353  17.042  -5.964  1.00  0.00     0.000 C 
BRANCH  15  16
ATOM     16  C   UNL     1      -0.178  16.077  -5.764  1.00  0.00     0.000 C 
BRANCH  16  17
ATOM     17  C   UNL     1       0.434  16.238  -4.365  1.00  0.00     0.000 C 
BRANCH  17  18
ATOM     18  C   UNL     1      -0.619  16.556  -3.289  1.00  0.00     0.000 C 
BRANCH  18  19
ATOM     19  C   UNL     1      -0.665  15.562  -2.113  1.00  0.00     0.000 C 
BRANCH  19  20
ATOM     20  C   UNL     1      -0.410  16.213  -0.736  1.00  0.00     0.006 C 
BRANCH  20  21
ATOM     21  C   UNL     1       0.943  15.806  -0.139  1.00  0.00     0.053 C 
BRANCH  21  22
ATOM     22  C   UNL     1       1.187  16.534   1.145  1.00  0.00     0.041 C 
ATOM     23  O   UNL     1       1.919  16.022   2.034  1.00  0.00    -0.550 OA
ATOM     24  O   UNL     1       0.565  17.753   1.383  1.00  0.00    -0.550 OA
ENDBRANCH  21  22
ENDBRANCH  20  21
ENDBRANCH  19  20
ENDBRANCH  18  19
ENDBRANCH  17  18
ENDBRANCH  16  17
ENDBRANCH  15  16
ENDBRANCH  14  15
ENDBRANCH  13  14
ENDBRANCH   1  13
TORSDOF 20
ENDMDL
MODEL 3
REMARK VINA RESULT:    -3.315      1.384      2.411
REMARK INTER + INTRA:          -9.306
REMARK INTER:                  -7.933
REMARK INTRA:                  -1.373
REMARK UNBOUND:                -2.116
REMARK SMILES CCCCCCCCCCCCCCCCCCCCCC(=O)[O-]
REMARK SMILES IDX 12 1 11 2 10 3 9 4 8 5 7 6 6 7 5 8 4 9 3 10 2 11 1 12 13 13
REMARK SMILES IDX 14 14 15 15 16 16 17 17 18 18 19 19 20 20 21 21 22 22 23 23
REMARK SMILES IDX 24 24
REMARK H PARENT
REMARK Flexibility Score: inf
ROOT
ATOM      1  C   UNL     1      -2.772  13.993  -4.909  1.00  0.00     0.000 C 
ENDROOT
BRANCH   1   2
ATOM      2  C   UNL     1      -2.396  14.871  -6.117  1.00  0.00     0.000 C 
BRANCH   2   3
ATOM      3  C   UNL     1      -2.780  16.345  -5.926  1.00  0.00     0.000 C 
BRANCH   3   4
ATOM      4  C   UNL     1      -1.546  17.194  -5.581  1.00  0.00    -0.000 C 
BRANCH   4   5
ATOM      5  C   UNL     1      -0.230  16.420  -5.757  1.00  0.00    -0.000 C 
BRANCH   5   6
ATOM      6  C   UNL     1       0.236  15.741  -4.459  1.00  0.00    -0.000 C 
BRANCH   6   7
ATOM      7  C   UNL     1      -0.271  16.457  -3.195  1.00  0.00    -0.000 C 
BRANCH   7   8
ATOM      8  C   UNL     1      -0.417  15.524  -1.976  1.00  0.00    -0.000 C 
BRANCH   8   9
ATOM      9  C   UNL     1      -0.464  16.302  -0.648  1.00  0.00    -0.000 C 
BRANCH   9  10
ATOM     10  C   UNL     1       0.832  16.165   0.170  1.00  0.00    -0.000 C 
BRANCH  10  11
ATOM     11  C   UNL     1       0.886  17.033   1.441  1.00  0.00    -0.003 C 
ATOM     12  C   UNL     1       2.111  16.744   2.308  1.00  0.00     0.004 C 
ENDBRANCH  10  11
ENDBRANCH   9  10
ENDBRANCH   8   9
ENDBRANCH   7   8
ENDBRANCH   6   7
ENDBRANCH   5   6
ENDBRANCH   4   5
ENDBRANCH   3   4
ENDBRANCH   2   3
ENDBRANCH   1   2
BRANCH   1  13
ATOM     13  C   UNL     1      -2.775  12.474  -5.178  1.00  0.00     0.000 C 
BRANCH  13  14
ATOM     14  C   UNL     1      -1.799  11.656  -4.315  1.00  0.00     0.000 C 
BRANCH  14  15
ATOM     15  C   UNL     1      -0.401  12.287  -4.234  1.00  0.00     0.000 C 
BRANCH  15  16
ATOM     16  C   UNL     1       0.327  11.845  -2.958  1.00  0.00     0.000 C 
BRANCH  16  17
ATOM     17  C   UNL     1       1.576  11.017  -3.297  1.00  0.00     0.000 C 
BRANCH  17  18
ATOM     18  C   UNL     1       1.938  10.009  -2.193  1.00  0.00     0.000 C 
BRANCH  18  19
ATOM     19  C   UNL     1       3.415   9.573  -2.171  1.00  0.00     0.000 C 
BRANCH  19  20
ATOM     20  C   UNL     1       3.694   8.364  -1.253  1.00  0.00     0.006 C 
BRANCH  20  21
ATOM     21  C   UNL     1       3.150   8.569   0.167  1.00  0.00     0.053 C 
BRANCH  21  22
ATOM     22  C   UNL     1       2.090   7.558   0.472  1.00  0.00     0.041 C 
ATOM     23  O   UNL     1       1.917   7.159   1.654  1.00  0.00    -0.550 OA
ATOM     24  O   UNL     1       1.327   7.017  -0.556  1.00  0.00    -0.550 OA
ENDBRANCH  21  22
ENDBRANCH  20  21
ENDBRANCH  19  20
ENDBRANCH  18  19
ENDBRANCH  17  18
ENDBRANCH  16  17
ENDBRANCH  15  16
ENDBRANCH  14  15
ENDBRANCH  13  14
ENDBRANCH   1  13
TORSDOF 20
ENDMDL
MODEL 4
REMARK VINA RESULT:    -3.211      2.367      7.818
REMARK INTER + INTRA:          -9.081
REMARK INTER:                  -7.452
REMARK INTRA:                  -1.629
REMARK UNBOUND:                -2.116
REMARK SMILES CCCCCCCCCCCCCCCCCCCCCC(=O)[O-]
REMARK SMILES IDX 12 1 11 2 10 3 9 4 8 5 7 6 6 7 5 8 4 9 3 10 2 11 1 12 13 13
REMARK SMILES IDX 14 14 15 15 16 16 17 17 18 18 19 19 20 20 21 21 22 22 23 23
REMARK SMILES IDX 24 24
REMARK H PARENT
REMARK Flexibility Score: inf
ROOT
ATOM      1  C   UNL     1      -2.997  12.201  -4.337  1.00  0.00     0.000 C 
ENDROOT
BRANCH   1   2
ATOM      2  C   UNL     1      -1.536  11.750  -4.518  1.00  0.00     0.000 C 
BRANCH   2   3
ATOM      3  C   UNL     1      -0.627  12.192  -3.362  1.00  0.00     0.000 C 
BRANCH   3   4
ATOM      4  C   UNL     1       0.854  12.017  -3.729  1.00  0.00    -0.000 C 
BRANCH   4   5
ATOM      5  C   UNL     1       1.502  10.822  -3.011  1.00  0.00    -0.000 C 
BRANCH   5   6
ATOM      6  C   UNL     1       1.007  10.661  -1.565  1.00  0.00    -0.000 C 
BRANCH   6   7
ATOM      7  C   UNL     1       1.250   9.249  -1.005  1.00  0.00    -0.000 C 
BRANCH   7   8
ATOM      8  C   UNL     1       2.736   8.834  -1.008  1.00  0.00    -0.000 C 
BRANCH   8   9
ATOM      9  C   UNL     1       3.370   8.926   0.392  1.00  0.00    -0.000 C 
BRANCH   9  10
ATOM     10  C   UNL     1       4.033   7.611   0.837  1.00  0.00    -0.000 C 
BRANCH  10  11
ATOM     11  C   UNL     1       3.066   6.571   1.432  1.00  0.00    -0.003 C 
ATOM     12  C   UNL     1       3.775   5.305   1.913  1.00  0.00     0.004 C 
ENDBRANCH  10  11
ENDBRANCH   9  10
ENDBRANCH   8   9
ENDBRANCH   7   8
ENDBRANCH   6   7
ENDBRANCH   5   6
ENDBRANCH   4   5
ENDBRANCH   3   4
ENDBRANCH   2   3
ENDBRANCH   1   2
BRANCH   1  13
ATOM     13  C   UNL     1      -3.247  13.710  -4.538  1.00  0.00     0.000 C 
BRANCH  13  14
ATOM     14  C   UNL     1      -3.104  14.209  -5.987  1.00  0.00     0.000 C 
BRANCH  14  15
ATOM     15  C   UNL     1      -2.163  15.416  -6.113  1.00  0.00     0.000 C 
BRANCH  15  16
ATOM     16  C   UNL     1      -2.937  16.732  -5.967  1.00  0.00     0.000 C 
BRANCH  16  17
ATOM     17  C   UNL     1      -1.988  17.937  -6.029  1.00  0.00     0.000 C 
BRANCH  17  18
ATOM     18  C   UNL     1      -1.088  18.049  -4.786  1.00  0.00     0.000 C 
BRANCH  18  19
ATOM     19  C   UNL     1       0.239  17.272  -4.873  1.00  0.00     0.000 C 
BRANCH  19  20
ATOM     20  C   UNL     1       0.507  16.359  -3.657  1.00  0.00     0.006 C 
BRANCH  20  21
ATOM     21  C   UNL     1      -0.784  15.944  -2.941  1.00  0.00     0.053 C 
BRANCH  21  22
ATOM     22  C   UNL     1      -0.575  15.919  -1.460  1.00  0.00     0.041 C 
ATOM     23  O   UNL     1       0.434  15.342  -0.973  1.00  0.00    -0.550 OA
ATOM     24  O   UNL     1      -1.519  16.486  -0.613  1.00  0.00    -0.550 OA
ENDBRANCH  21  22
ENDBRANCH  20  21
ENDBRANCH  19  20
ENDBRANCH  18  19
ENDBRANCH  17  18
ENDBRANCH  16  17
ENDBRANCH  15  16
ENDBRANCH  14  15
ENDBRANCH  13  14
ENDBRANCH   1  13
TORSDOF 20
ENDMDL
MODEL 5
REMARK VINA RESULT:    -3.170      3.644      7.952
REMARK INTER + INTRA:          -8.993
REMARK INTER:                  -6.570
REMARK INTRA:                  -2.423
REMARK UNBOUND:                -2.116
REMARK SMILES CCCCCCCCCCCCCCCCCCCCCC(=O)[O-]
REMARK SMILES IDX 12 1 11 2 10 3 9 4 8 5 7 6 6 7 5 8 4 9 3 10 2 11 1 12 13 13
REMARK SMILES IDX 14 14 15 15 16 16 17 17 18 18 19 19 20 20 21 21 22 22 23 23
REMARK SMILES IDX 24 24
REMARK H PARENT
REMARK Flexibility Score: inf
ROOT
ATOM      1  C   UNL     1      -1.037  12.187  -3.693  1.00  0.00     0.000 C 
ENDROOT
BRANCH   1   2
ATOM      2  C   UNL     1       0.307  12.551  -4.351  1.00  0.00     0.000 C 
BRANCH   2   3
ATOM      3  C   UNL     1       1.469  11.679  -3.856  1.00  0.00     0.000 C 
BRANCH   3   4
ATOM      4  C   UNL     1       2.782  12.065  -4.555  1.00  0.00    -0.000 C 
BRANCH   4   5
ATOM      5  C   UNL     1       3.927  11.091  -4.239  1.00  0.00    -0.000 C 
BRANCH   5   6
ATOM      6  C   UNL     1       3.426   9.748  -3.682  1.00  0.00    -0.000 C 
BRANCH   6   7
ATOM      7  C   UNL     1       4.056   9.392  -2.325  1.00  0.00    -0.000 C 
BRANCH   7   8
ATOM      8  C   UNL     1       3.989   7.888  -1.991  1.00  0.00    -0.000 C 
BRANCH   8   9
ATOM      9  C   UNL     1       3.142   7.605  -0.737  1.00  0.00    -0.000 C 
BRANCH   9  10
ATOM     10  C   UNL     1       2.779   8.884   0.039  1.00  0.00    -0.000 C 
BRANCH  10  11
ATOM     11  C   UNL     1       1.273   9.082   0.287  1.00  0.00    -0.003 C 
ATOM     12  C   UNL     1       0.530   9.605  -0.942  1.00  0.00     0.004 C 
ENDBRANCH  10  11
ENDBRANCH   9  10
ENDBRANCH   8   9
ENDBRANCH   7   8
ENDBRANCH   6   7
ENDBRANCH   5   6
ENDBRANCH   4   5
ENDBRANCH   3   4
ENDBRANCH   2   3
ENDBRANCH   1   2
BRANCH   1  13
ATOM     13  C   UNL     1      -2.064  11.514  -4.627  1.00  0.00     0.000 C 
BRANCH  13  14
ATOM     14  C   UNL     1      -2.981  12.483  -5.395  1.00  0.00     0.000 C 
BRANCH  14  15
ATOM     15  C   UNL     1      -3.119  13.848  -4.705  1.00  0.00     0.000 C 
BRANCH  15  16
ATOM     16  C   UNL     1      -2.900  14.992  -5.702  1.00  0.00     0.000 C 
BRANCH  16  17
ATOM     17  C   UNL     1      -2.172  16.169  -5.038  1.00  0.00     0.000 C 
BRANCH  17  18
ATOM     18  C   UNL     1      -1.797  15.886  -3.573  1.00  0.00     0.000 C 
BRANCH  18  19
ATOM     19  C   UNL     1      -0.298  16.024  -3.248  1.00  0.00     0.000 C 
BRANCH  19  20
ATOM     20  C   UNL     1       0.610  16.050  -4.497  1.00  0.00     0.006 C 
BRANCH  20  21
ATOM     21  C   UNL     1       1.834  16.956  -4.311  1.00  0.00     0.053 C 
BRANCH  21  22
ATOM     22  C   UNL     1       1.757  18.133  -5.231  1.00  0.00     0.041 C 
ATOM     23  O   UNL     1       0.824  18.219  -6.072  1.00  0.00    -0.550 OA
ATOM     24  O   UNL     1       2.744  19.111  -5.194  1.00  0.00    -0.550 OA
ENDBRANCH  21  22
ENDBRANCH  20  21
ENDBRANCH  19  20
ENDBRANCH  18  19
ENDBRANCH  17  18
ENDBRANCH  16  17
ENDBRANCH  15  16
ENDBRANCH  14  15
ENDBRANCH  13  14
ENDBRANCH   1  13
TORSDOF 20
ENDMDL
MODEL 6
REMARK VINA RESULT:    -3.030      1.094      1.931
REMARK INTER + INTRA:          -8.689
REMARK INTER:                  -6.886
REMARK INTRA:                  -1.803
REMARK UNBOUND:                -2.116
REMARK SMILES CCCCCCCCCCCCCCCCCCCCCC(=O)[O-]
REMARK SMILES IDX 12 1 11 2 10 3 9 4 8 5 7 6 6 7 5 8 4 9 3 10 2 11 1 12 13 13
REMARK SMILES IDX 14 14 15 15 16 16 17 17 18 18 19 19 20 20 21 21 22 22 23 23
REMARK SMILES IDX 24 24
REMARK H PARENT
REMARK Flexibility Score: inf
ROOT
ATOM      1  C   UNL     1      -2.264  12.204  -4.262  1.00  0.00     0.000 C 
ENDROOT
BRANCH   1   2
ATOM      2  C   UNL     1      -3.265  13.344  -4.526  1.00  0.00     0.000 C 
BRANCH   2   3
ATOM      3  C   UNL     1      -3.236  13.840  -5.979  1.00  0.00     0.000 C 
BRANCH   3   4
ATOM      4  C   UNL     1      -2.332  15.074  -6.121  1.00  0.00    -0.000 C 
BRANCH   4   5
ATOM      5  C   UNL     1      -3.105  16.393  -5.957  1.00  0.00    -0.000 C 
BRANCH   5   6
ATOM      6  C   UNL     1      -2.178  17.597  -5.722  1.00  0.00    -0.000 C 
BRANCH   6   7
ATOM      7  C   UNL     1      -0.688  17.217  -5.748  1.00  0.00    -0.000 C 
BRANCH   7   8
ATOM      8  C   UNL     1       0.033  17.461  -4.406  1.00  0.00    -0.000 C 
BRANCH   8   9
ATOM      9  C   UNL     1       0.005  16.220  -3.495  1.00  0.00    -0.000 C 
BRANCH   9  10
ATOM     10  C   UNL     1      -1.352  16.023  -2.794  1.00  0.00    -0.000 C 
BRANCH  10  11
ATOM     11  C   UNL     1      -1.278  15.935  -1.259  1.00  0.00    -0.003 C 
ATOM     12  C   UNL     1       0.157  15.889  -0.733  1.00  0.00     0.004 C 
ENDBRANCH  10  11
ENDBRANCH   9  10
ENDBRANCH   8   9
ENDBRANCH   7   8
ENDBRANCH   6   7
ENDBRANCH   5   6
ENDBRANCH   4   5
ENDBRANCH   3   4
ENDBRANCH   2   3
ENDBRANCH   1   2
BRANCH   1  13
ATOM     13  C   UNL     1      -0.843  12.438  -4.813  1.00  0.00     0.000 C 
BRANCH  13  14
ATOM     14  C   UNL     1       0.246  12.640  -3.745  1.00  0.00     0.000 C 
BRANCH  14  15
ATOM     15  C   UNL     1       1.275  11.499  -3.718  1.00  0.00     0.000 C 
BRANCH  15  16
ATOM     16  C   UNL     1       2.533  11.877  -4.508  1.00  0.00     0.000 C 
BRANCH  16  17
ATOM     17  C   UNL     1       3.721  10.989  -4.107  1.00  0.00     0.000 C 
BRANCH  17  18
ATOM     18  C   UNL     1       3.288   9.729  -3.339  1.00  0.00     0.000 C 
BRANCH  18  19
ATOM     19  C   UNL     1       3.945   9.553  -1.957  1.00  0.00     0.000 C 
BRANCH  19  20
ATOM     20  C   UNL     1       3.377   8.369  -1.144  1.00  0.00     0.006 C 
BRANCH  20  21
ATOM     21  C   UNL     1       2.744   8.819   0.179  1.00  0.00     0.053 C 
BRANCH  21  22
ATOM     22  C   UNL     1       1.340   8.313   0.284  1.00  0.00     0.041 C 
ATOM     23  O   UNL     1       1.098   7.084   0.145  1.00  0.00    -0.550 OA
ATOM     24  O   UNL     1       0.292   9.203   0.485  1.00  0.00    -0.550 OA
ENDBRANCH  21  22
ENDBRANCH  20  21
ENDBRANCH  19  20
ENDBRANCH  18  19
ENDBRANCH  17  18
ENDBRANCH  16  17
ENDBRANCH  15  16
ENDBRANCH  14  15
ENDBRANCH  13  14
ENDBRANCH   1  13
TORSDOF 20
ENDMDL
MODEL 7
REMARK VINA RESULT:    -2.959      1.467      2.146
REMARK INTER + INTRA:          -8.535
REMARK INTER:                  -6.985
REMARK INTRA:                  -1.550
REMARK UNBOUND:                -2.116
REMARK SMILES CCCCCCCCCCCCCCCCCCCCCC(=O)[O-]
REMARK SMILES IDX 12 1 11 2 10 3 9 4 8 5 7 6 6 7 5 8 4 9 3 10 2 11 1 12 13 13
REMARK SMILES IDX 14 14 15 15 16 16 17 17 18 18 19 19 20 20 21 21 22 22 23 23
REMARK SMILES IDX 24 24
REMARK H PARENT
REMARK Flexibility Score: inf
ROOT
ATOM      1  C   UNL     1      -2.943  14.263  -4.560  1.00  0.00     0.000 C 
ENDROOT
BRANCH   1   2
ATOM      2  C   UNL     1      -3.303  15.014  -5.854  1.00  0.00     0.000 C 
BRANCH   2   3
ATOM      3  C   UNL     1      -2.426  16.253  -6.090  1.00  0.00     0.000 C 
BRANCH   3   4
ATOM      4  C   UNL     1      -3.257  17.541  -5.988  1.00  0.00    -0.000 C 
BRANCH   4   5
ATOM      5  C   UNL     1      -2.388  18.785  -5.739  1.00  0.00    -0.000 C 
BRANCH   5   6
ATOM      6  C   UNL     1      -0.896  18.528  -6.005  1.00  0.00    -0.000 C 
BRANCH   6   7
ATOM      7  C   UNL     1      -0.074  18.393  -4.713  1.00  0.00    -0.000 C 
BRANCH   7   8
ATOM      8  C   UNL     1       1.143  17.455  -4.853  1.00  0.00    -0.000 C 
BRANCH   8   9
ATOM      9  C   UNL     1       0.768  15.977  -4.643  1.00  0.00    -0.000 C 
BRANCH   9  10
ATOM     10  C   UNL     1       1.148  15.088  -5.841  1.00  0.00    -0.000 C 
BRANCH  10  11
ATOM     11  C   UNL     1       2.104  13.930  -5.505  1.00  0.00    -0.003 C 
ATOM     12  C   UNL     1       3.491  14.103  -6.123  1.00  0.00     0.004 C 
ENDBRANCH  10  11
ENDBRANCH   9  10
ENDBRANCH   8   9
ENDBRANCH   7   8
ENDBRANCH   6   7
ENDBRANCH   5   6
ENDBRANCH   4   5
ENDBRANCH   3   4
ENDBRANCH   2   3
ENDBRANCH   1   2
BRANCH   1  13
ATOM     13  C   UNL     1      -3.010  12.725  -4.654  1.00  0.00     0.000 C 
BRANCH  13  14
ATOM     14  C   UNL     1      -1.674  12.032  -4.973  1.00  0.00     0.000 C 
BRANCH  14  15
ATOM     15  C   UNL     1      -1.123  11.222  -3.790  1.00  0.00     0.000 C 
BRANCH  15  16
ATOM     16  C   UNL     1       0.114  11.901  -3.189  1.00  0.00     0.000 C 
BRANCH  16  17
ATOM     17  C   UNL     1       1.267  10.899  -3.028  1.00  0.00     0.000 C 
BRANCH  17  18
ATOM     18  C   UNL     1       1.218  10.147  -1.687  1.00  0.00     0.000 C 
BRANCH  18  19
ATOM     19  C   UNL     1       2.460   9.291  -1.377  1.00  0.00     0.000 C 
BRANCH  19  20
ATOM     20  C   UNL     1       2.958   9.422   0.079  1.00  0.00     0.006 C 
BRANCH  20  21
ATOM     21  C   UNL     1       3.604   8.129   0.594  1.00  0.00     0.053 C 
BRANCH  21  22
ATOM     22  C   UNL     1       2.555   7.173   1.066  1.00  0.00     0.041 C 
ATOM     23  O   UNL     1       2.880   6.154   1.731  1.00  0.00    -0.550 OA
ATOM     24  O   UNL     1       1.223   7.379   0.729  1.00  0.00    -0.550 OA
ENDBRANCH  21  22
ENDBRANCH  20  21
ENDBRANCH  19  20
ENDBRANCH  18  19
ENDBRANCH  17  18
ENDBRANCH  16  17
ENDBRANCH  15  16
ENDBRANCH  14  15
ENDBRANCH  13  14
ENDBRANCH   1  13
TORSDOF 20
ENDMDL
MODEL 8
REMARK VINA RESULT:    -2.935      1.558      3.083
REMARK INTER + INTRA:          -8.484
REMARK INTER:                  -6.588
REMARK INTRA:                  -1.896
REMARK UNBOUND:                -2.116
REMARK SMILES CCCCCCCCCCCCCCCCCCCCCC(=O)[O-]
REMARK SMILES IDX 12 1 11 2 10 3 9 4 8 5 7 6 6 7 5 8 4 9 3 10 2 11 1 12 13 13
REMARK SMILES IDX 14 14 15 15 16 16 17 17 18 18 19 19 20 20 21 21 22 22 23 23
REMARK SMILES IDX 24 24
REMARK H PARENT
REMARK Flexibility Score: inf
ROOT
ATOM      1  C   UNL     1      -2.657  16.062  -5.622  1.00  0.00     0.000 C 
ENDROOT
BRANCH   1   2
ATOM      2  C   UNL     1      -1.359  16.751  -6.081  1.00  0.00     0.000 C 
BRANCH   2   3
ATOM      3  C   UNL     1      -1.142  18.118  -5.419  1.00  0.00     0.000 C 
BRANCH   3   4
ATOM      4  C   UNL     1      -0.276  17.986  -4.156  1.00  0.00    -0.000 C 
BRANCH   4   5
ATOM      5  C   UNL     1       0.585  16.713  -4.162  1.00  0.00    -0.000 C 
BRANCH   5   6
ATOM      6  C   UNL     1       0.184  15.722  -3.058  1.00  0.00    -0.000 C 
BRANCH   6   7
ATOM      7  C   UNL     1      -1.137  16.100  -2.368  1.00  0.00    -0.000 C 
BRANCH   7   8
ATOM      8  C   UNL     1      -1.069  16.030  -0.828  1.00  0.00    -0.000 C 
BRANCH   8   9
ATOM      9  C   UNL     1       0.348  16.306  -0.294  1.00  0.00    -0.000 C 
BRANCH   9  10
ATOM     10  C   UNL     1       0.392  17.471   0.710  1.00  0.00    -0.000 C 
BRANCH  10  11
ATOM     11  C   UNL     1       1.289  17.231   1.938  1.00  0.00    -0.003 C 
ATOM     12  C   UNL     1       2.129  15.959   1.823  1.00  0.00     0.004 C 
ENDBRANCH  10  11
ENDBRANCH   9  10
ENDBRANCH   8   9
ENDBRANCH   7   8
ENDBRANCH   6   7
ENDBRANCH   5   6
ENDBRANCH   4   5
ENDBRANCH   3   4
ENDBRANCH   2   3
ENDBRANCH   1   2
BRANCH   1  13
ATOM     13  C   UNL     1      -2.839  14.611  -6.114  1.00  0.00     0.000 C 
BRANCH  13  14
ATOM     14  C   UNL     1      -3.167  13.586  -5.015  1.00  0.00     0.000 C 
BRANCH  14  15
ATOM     15  C   UNL     1      -2.644  12.178  -5.336  1.00  0.00     0.000 C 
BRANCH  15  16
ATOM     16  C   UNL     1      -1.749  11.654  -4.207  1.00  0.00     0.000 C 
BRANCH  16  17
ATOM     17  C   UNL     1      -0.429  12.437  -4.145  1.00  0.00     0.000 C 
BRANCH  17  18
ATOM     18  C   UNL     1       0.682  11.671  -3.406  1.00  0.00     0.000 C 
BRANCH  18  19
ATOM     19  C   UNL     1       0.186  10.649  -2.366  1.00  0.00     0.000 C 
BRANCH  19  20
ATOM     20  C   UNL     1       1.157  10.442  -1.184  1.00  0.00     0.006 C 
BRANCH  20  21
ATOM     21  C   UNL     1       2.220   9.376  -1.480  1.00  0.00     0.053 C 
BRANCH  21  22
ATOM     22  C   UNL     1       2.339   8.424  -0.332  1.00  0.00     0.041 C 
ATOM     23  O   UNL     1       3.306   8.516   0.470  1.00  0.00    -0.550 OA
ATOM     24  O   UNL     1       1.410   7.402  -0.177  1.00  0.00    -0.550 OA
ENDBRANCH  21  22
ENDBRANCH  20  21
ENDBRANCH  19  20
ENDBRANCH  18  19
ENDBRANCH  17  18
ENDBRANCH  16  17
ENDBRANCH  15  16
ENDBRANCH  14  15
ENDBRANCH  13  14
ENDBRANCH   1  13
TORSDOF 20
ENDMDL
MODEL 9
REMARK VINA RESULT:    -2.873      2.538      7.836
REMARK INTER + INTRA:          -8.348
REMARK INTER:                  -6.811
REMARK INTRA:                  -1.538
REMARK UNBOUND:                -2.116
REMARK SMILES CCCCCCCCCCCCCCCCCCCCCC(=O)[O-]
REMARK SMILES IDX 12 1 11 2 10 3 9 4 8 5 7 6 6 7 5 8 4 9 3 10 2 11 1 12 13 13
REMARK SMILES IDX 14 14 15 15 16 16 17 17 18 18 19 19 20 20 21 21 22 22 23 23
REMARK SMILES IDX 24 24
REMARK H PARENT
REMARK Flexibility Score: inf
ROOT
ATOM      1  C   UNL     1      -0.723  11.897  -3.498  1.00  0.00     0.000 C 
ENDROOT
BRANCH   1   2
ATOM      2  C   UNL     1       0.760  11.931  -3.913  1.00  0.00     0.000 C 
BRANCH   2   3
ATOM      3  C   UNL     1       1.614  10.898  -3.165  1.00  0.00     0.000 C 
BRANCH   3   4
ATOM      4  C   UNL     1       2.721  10.339  -4.072  1.00  0.00    -0.000 C 
BRANCH   4   5
ATOM      5  C   UNL     1       3.945   9.855  -3.280  1.00  0.00    -0.000 C 
BRANCH   5   6
ATOM      6  C   UNL     1       3.655   9.699  -1.778  1.00  0.00    -0.000 C 
BRANCH   6   7
ATOM      7  C   UNL     1       3.987   8.293  -1.250  1.00  0.00    -0.000 C 
BRANCH   7   8
ATOM      8  C   UNL     1       4.124   8.230   0.285  1.00  0.00    -0.000 C 
BRANCH   8   9
ATOM      9  C   UNL     1       2.756   8.170   0.991  1.00  0.00    -0.000 C 
BRANCH   9  10
ATOM     10  C   UNL     1       1.737   7.290   0.246  1.00  0.00    -0.000 C 
BRANCH  10  11
ATOM     11  C   UNL     1       0.663   8.068  -0.536  1.00  0.00    -0.003 C 
ATOM     12  C   UNL     1       0.446   9.483  -0.003  1.00  0.00     0.004 C 
ENDBRANCH  10  11
ENDBRANCH   9  10
ENDBRANCH   8   9
ENDBRANCH   7   8
ENDBRANCH   6   7
ENDBRANCH   5   6
ENDBRANCH   4   5
ENDBRANCH   3   4
ENDBRANCH   2   3
ENDBRANCH   1   2
BRANCH   1  13
ATOM     13  C   UNL     1      -1.678  11.262  -4.529  1.00  0.00     0.000 C 
BRANCH  13  14
ATOM     14  C   UNL     1      -2.756  12.207  -5.088  1.00  0.00     0.000 C 
BRANCH  14  15
ATOM     15  C   UNL     1      -2.607  13.649  -4.582  1.00  0.00     0.000 C 
BRANCH  15  16
ATOM     16  C   UNL     1      -2.678  14.648  -5.743  1.00  0.00     0.000 C 
BRANCH  16  17
ATOM     17  C   UNL     1      -1.430  15.543  -5.773  1.00  0.00     0.000 C 
BRANCH  17  18
ATOM     18  C   UNL     1      -1.615  16.848  -4.980  1.00  0.00     0.000 C 
BRANCH  18  19
ATOM     19  C   UNL     1      -0.311  17.479  -4.455  1.00  0.00     0.000 C 
BRANCH  19  20
ATOM     20  C   UNL     1       0.502  16.549  -3.529  1.00  0.00     0.006 C 
BRANCH  20  21
ATOM     21  C   UNL     1      -0.373  15.488  -2.850  1.00  0.00     0.053 C 
BRANCH  21  22
ATOM     22  C   UNL     1      -0.666  15.881  -1.436  1.00  0.00     0.041 C 
ATOM     23  O   UNL     1      -1.858  15.996  -1.044  1.00  0.00    -0.550 OA
ATOM     24  O   UNL     1       0.377  16.170  -0.564  1.00  0.00    -0.550 OA
ENDBRANCH  21  22
ENDBRANCH  20  21
ENDBRANCH  19  20
ENDBRANCH  18  19
ENDBRANCH  17  18
ENDBRANCH  16  17
ENDBRANCH  15  16
ENDBRANCH  14  15
ENDBRANCH  13  14
ENDBRANCH   1  13
TORSDOF 20
ENDMDL
