MODEL 1
REMARK VINA RESULT:    -3.083      0.000      0.000
REMARK INTER + INTRA:          -6.193
REMARK INTER:                  -4.885
REMARK INTRA:                  -1.308
REMARK UNBOUND:                -1.308
REMARK SMILES CCCCCCCCCCCC(=O)[O-]
REMARK SMILES IDX 7 1 8 2 9 3 10 4 11 5 12 6 13 7 14 8 6 9 5 10 4 11 3 12 2 13
REMARK SMILES IDX 1 14
REMARK H PARENT
REMARK Flexibility Score: inf
ROOT
ATOM      1  C   UNL     1      33.246  18.977  13.249  1.00  0.00     0.000 C 
ENDROOT
BRANCH   1   2
ATOM      2  C   UNL     1      32.992  20.145  12.283  1.00  0.00     0.000 C 
BRANCH   2   3
ATOM      3  C   UNL     1      33.498  21.488  12.831  1.00  0.00     0.000 C 
BRANCH   3   4
ATOM      4  C   UNL     1      34.584  22.120  11.942  1.00  0.00     0.006 C 
BRANCH   4   5
ATOM      5  C   UNL     1      35.469  21.062  11.270  1.00  0.00     0.053 C 
BRANCH   5   6
ATOM      6  C   UNL     1      35.727  21.381   9.829  1.00  0.00     0.041 C 
ATOM      7  O   UNL     1      34.838  21.943   9.137  1.00  0.00    -0.550 OA
ATOM      8  O   UNL     1      36.937  21.031   9.244  1.00  0.00    -0.550 OA
ENDBRANCH   5   6
ENDBRANCH   4   5
ENDBRANCH   3   4
ENDBRANCH   2   3
ENDBRANCH   1   2
BRANCH   1   9
ATOM      9  C   UNL     1      32.876  19.363  14.686  1.00  0.00     0.000 C 
BRANCH   9  10
ATOM     10  C   UNL     1      33.990  18.967  15.667  1.00  0.00    -0.000 C 
BRANCH  10  11
ATOM     11  C   UNL     1      34.821  20.169  16.140  1.00  0.00    -0.000 C 
BRANCH  11  12
ATOM     12  C   UNL     1      36.091  20.380  15.297  1.00  0.00    -0.000 C 
BRANCH  12  13
ATOM     13  C   UNL     1      36.428  21.866  15.100  1.00  0.00    -0.003 C 
ATOM     14  C   UNL     1      37.794  22.084  14.452  1.00  0.00     0.004 C 
ENDBRANCH  12  13
ENDBRANCH  11  12
ENDBRANCH  10  11
ENDBRANCH   9  10
ENDBRANCH   1   9
TORSDOF 10
ENDMDL
MODEL 2
REMARK VINA RESULT:    -3.028      2.352      4.361
REMARK INTER + INTRA:          -6.106
REMARK INTER:                  -5.061
REMARK INTRA:                  -1.046
REMARK UNBOUND:                -1.308
REMARK SMILES CCCCCCCCCCCC(=O)[O-]
REMARK SMILES IDX 7 1 8 2 9 3 10 4 11 5 12 6 13 7 14 8 6 9 5 10 4 11 3 12 2 13
REMARK SMILES IDX 1 14
REMARK H PARENT
REMARK Flexibility Score: inf
ROOT
ATOM      1  C   UNL     1      33.407  18.998  13.405  1.00  0.00     0.000 C 
ENDROOT
BRANCH   1   2
ATOM      2  C   UNL     1      33.180  19.534  14.828  1.00  0.00     0.000 C 
BRANCH   2   3
ATOM      3  C   UNL     1      34.347  19.213  15.775  1.00  0.00     0.000 C 
BRANCH   3   4
ATOM      4  C   UNL     1      35.273  20.422  16.005  1.00  0.00     0.006 C 
BRANCH   4   5
ATOM      5  C   UNL     1      36.323  20.565  14.896  1.00  0.00     0.053 C 
BRANCH   5   6
ATOM      6  C   UNL     1      37.052  21.871  14.982  1.00  0.00     0.041 C 
ATOM      7  O   UNL     1      36.425  22.930  15.248  1.00  0.00    -0.550 OA
ATOM      8  O   UNL     1      38.418  21.924  14.737  1.00  0.00    -0.550 OA
ENDBRANCH   5   6
ENDBRANCH   4   5
ENDBRANCH   3   4
ENDBRANCH   2   3
ENDBRANCH   1   2
BRANCH   1   9
ATOM      9  C   UNL     1      32.985  20.033  12.356  1.00  0.00     0.000 C 
BRANCH   9  10
ATOM     10  C   UNL     1      33.216  21.463  12.869  1.00  0.00    -0.000 C 
BRANCH  10  11
ATOM     11  C   UNL     1      34.419  22.147  12.200  1.00  0.00    -0.000 C 
BRANCH  11  12
ATOM     12  C   UNL     1      35.229  21.186  11.314  1.00  0.00    -0.000 C 
BRANCH  12  13
ATOM     13  C   UNL     1      36.264  21.917  10.446  1.00  0.00    -0.003 C 
ATOM     14  C   UNL     1      36.741  21.080   9.259  1.00  0.00     0.004 C 
ENDBRANCH  12  13
ENDBRANCH  11  12
ENDBRANCH  10  11
ENDBRANCH   9  10
ENDBRANCH   1   9
TORSDOF 10
ENDMDL
MODEL 3
REMARK VINA RESULT:    -2.899     14.429     16.766
REMARK INTER + INTRA:          -5.902
REMARK INTER:                  -5.144
REMARK INTRA:                  -0.757
REMARK UNBOUND:                -1.308
REMARK SMILES CCCCCCCCCCCC(=O)[O-]
REMARK SMILES IDX 7 1 8 2 9 3 10 4 11 5 12 6 13 7 14 8 6 9 5 10 4 11 3 12 2 13
REMARK SMILES IDX 1 14
REMARK H PARENT
REMARK Flexibility Score: inf
ROOT
ATOM      1  C   UNL     1      47.509  22.005  17.004  1.00  0.00     0.000 C 
ENDROOT
BRANCH   1   2
ATOM      2  C   UNL     1      48.485  22.822  17.866  1.00  0.00     0.000 C 
BRANCH   2   3
ATOM      3  C   UNL     1      47.930  23.122  19.267  1.00  0.00     0.000 C 
BRANCH   3   4
ATOM      4  C   UNL     1      49.007  23.034  20.363  1.00  0.00     0.006 C 
BRANCH   4   5
ATOM      5  C   UNL     1      50.075  21.981  20.039  1.00  0.00     0.053 C 
BRANCH   5   6
ATOM      6  C   UNL     1      50.502  21.224  21.260  1.00  0.00     0.041 C 
ATOM      7  O   UNL     1      49.725  21.123  22.246  1.00  0.00    -0.550 OA
ATOM      8  O   UNL     1      51.768  20.657  21.320  1.00  0.00    -0.550 OA
ENDBRANCH   5   6
ENDBRANCH   4   5
ENDBRANCH   3   4
ENDBRANCH   2   3
ENDBRANCH   1   2
BRANCH   1   9
ATOM      9  C   UNL     1      48.220  21.416  15.780  1.00  0.00     0.000 C 
BRANCH   9  10
ATOM     10  C   UNL     1      49.716  21.769  15.789  1.00  0.00    -0.000 C 
BRANCH  10  11
ATOM     11  C   UNL     1      50.512  21.010  14.717  1.00  0.00    -0.000 C 
BRANCH  11  12
ATOM     12  C   UNL     1      52.005  20.883  15.068  1.00  0.00    -0.000 C 
BRANCH  12  13
ATOM     13  C   UNL     1      52.510  22.054  15.924  1.00  0.00    -0.003 C 
ATOM     14  C   UNL     1      53.025  21.610  17.293  1.00  0.00     0.004 C 
ENDBRANCH  12  13
ENDBRANCH  11  12
ENDBRANCH  10  11
ENDBRANCH   9  10
ENDBRANCH   1   9
TORSDOF 10
ENDMDL
MODEL 4
REMARK VINA RESULT:    -2.726      1.111      3.089
REMARK INTER + INTRA:          -5.627
REMARK INTER:                  -4.645
REMARK INTRA:                  -0.983
REMARK UNBOUND:                -1.308
REMARK SMILES CCCCCCCCCCCC(=O)[O-]
REMARK SMILES IDX 7 1 8 2 9 3 10 4 11 5 12 6 13 7 14 8 6 9 5 10 4 11 3 12 2 13
REMARK SMILES IDX 1 14
REMARK H PARENT
REMARK Flexibility Score: inf
ROOT
ATOM      1  C   UNL     1      36.215  21.310  14.167  1.00  0.00     0.000 C 
ENDROOT
BRANCH   1   2
ATOM      2  C   UNL     1      35.717  22.650  13.603  1.00  0.00     0.000 C 
BRANCH   2   3
ATOM      3  C   UNL     1      34.312  22.550  12.989  1.00  0.00     0.000 C 
BRANCH   3   4
ATOM      4  C   UNL     1      34.336  22.550  11.450  1.00  0.00     0.006 C 
BRANCH   4   5
ATOM      5  C   UNL     1      35.066  21.325  10.883  1.00  0.00     0.053 C 
BRANCH   5   6
ATOM      6  C   UNL     1      36.293  21.711  10.116  1.00  0.00     0.041 C 
ATOM      7  O   UNL     1      36.772  20.930   9.252  1.00  0.00    -0.550 OA
ATOM      8  O   UNL     1      36.926  22.919  10.377  1.00  0.00    -0.550 OA
ENDBRANCH   5   6
ENDBRANCH   4   5
ENDBRANCH   3   4
ENDBRANCH   2   3
ENDBRANCH   1   2
BRANCH   1   9
ATOM      9  C   UNL     1      36.316  21.363  15.696  1.00  0.00     0.000 C 
BRANCH   9  10
ATOM     10  C   UNL     1      35.185  20.555  16.351  1.00  0.00    -0.000 C 
BRANCH  10  11
ATOM     11  C   UNL     1      34.880  19.247  15.605  1.00  0.00    -0.000 C 
BRANCH  11  12
ATOM     12  C   UNL     1      33.399  18.841  15.703  1.00  0.00    -0.000 C 
BRANCH  12  13
ATOM     13  C   UNL     1      32.875  18.210  14.404  1.00  0.00    -0.003 C 
ATOM     14  C   UNL     1      33.281  18.994  13.157  1.00  0.00     0.004 C 
ENDBRANCH  12  13
ENDBRANCH  11  12
ENDBRANCH  10  11
ENDBRANCH   9  10
ENDBRANCH   1   9
TORSDOF 10
ENDMDL
MODEL 5
REMARK VINA RESULT:    -2.702     13.772     16.693
REMARK INTER + INTRA:          -5.589
REMARK INTER:                  -5.000
REMARK INTRA:                  -0.590
REMARK UNBOUND:                -1.308
REMARK SMILES CCCCCCCCCCCC(=O)[O-]
REMARK SMILES IDX 7 1 8 2 9 3 10 4 11 5 12 6 13 7 14 8 6 9 5 10 4 11 3 12 2 13
REMARK SMILES IDX 1 14
REMARK H PARENT
REMARK Flexibility Score: inf
ROOT
ATOM      1  C   UNL     1      52.666  21.411  16.258  1.00  0.00     0.000 C 
ENDROOT
BRANCH   1   2
ATOM      2  C   UNL     1      52.124  21.417  14.820  1.00  0.00     0.000 C 
BRANCH   2   3
ATOM      3  C   UNL     1      50.725  20.789  14.710  1.00  0.00     0.000 C 
BRANCH   3   4
ATOM      4  C   UNL     1      49.667  21.553  15.526  1.00  0.00     0.006 C 
BRANCH   4   5
ATOM      5  C   UNL     1      48.292  20.875  15.469  1.00  0.00     0.053 C 
BRANCH   5   6
ATOM      6  C   UNL     1      47.341  21.453  16.473  1.00  0.00     0.041 C 
ATOM      7  O   UNL     1      47.779  21.971  17.534  1.00  0.00    -0.550 OA
ATOM      8  O   UNL     1      45.972  21.394  16.250  1.00  0.00    -0.550 OA
ENDBRANCH   5   6
ENDBRANCH   4   5
ENDBRANCH   3   4
ENDBRANCH   2   3
ENDBRANCH   1   2
BRANCH   1   9
ATOM      9  C   UNL     1      52.866  22.841  16.774  1.00  0.00     0.000 C 
BRANCH   9  10
ATOM     10  C   UNL     1      52.101  23.064  18.088  1.00  0.00    -0.000 C 
BRANCH  10  11
ATOM     11  C   UNL     1      52.258  21.895  19.072  1.00  0.00    -0.000 C 
BRANCH  11  12
ATOM     12  C   UNL     1      52.051  22.322  20.536  1.00  0.00    -0.000 C 
BRANCH  12  13
ATOM     13  C   UNL     1      51.826  21.124  21.472  1.00  0.00    -0.003 C 
ATOM     14  C   UNL     1      50.398  21.053  22.011  1.00  0.00     0.004 C 
ENDBRANCH  12  13
ENDBRANCH  11  12
ENDBRANCH  10  11
ENDBRANCH   9  10
ENDBRANCH   1   9
TORSDOF 10
ENDMDL
MODEL 6
REMARK VINA RESULT:    -2.619     14.513     17.628
REMARK INTER + INTRA:          -5.458
REMARK INTER:                  -4.633
REMARK INTRA:                  -0.825
REMARK UNBOUND:                -1.308
REMARK SMILES CCCCCCCCCCCC(=O)[O-]
REMARK SMILES IDX 7 1 8 2 9 3 10 4 11 5 12 6 13 7 14 8 6 9 5 10 4 11 3 12 2 13
REMARK SMILES IDX 1 14
REMARK H PARENT
REMARK Flexibility Score: inf
ROOT
ATOM      1  C   UNL     1      52.318  22.213  16.200  1.00  0.00     0.000 C 
ENDROOT
BRANCH   1   2
ATOM      2  C   UNL     1      52.931  21.583  17.461  1.00  0.00     0.000 C 
BRANCH   2   3
ATOM      3  C   UNL     1      52.769  22.471  18.706  1.00  0.00     0.000 C 
BRANCH   3   4
ATOM      4  C   UNL     1      51.303  22.855  18.973  1.00  0.00     0.006 C 
BRANCH   4   5
ATOM      5  C   UNL     1      50.669  21.990  20.070  1.00  0.00     0.053 C 
BRANCH   5   6
ATOM      6  C   UNL     1      51.632  21.703  21.182  1.00  0.00     0.041 C 
ATOM      7  O   UNL     1      51.908  22.595  22.026  1.00  0.00    -0.550 OA
ATOM      8  O   UNL     1      52.246  20.461  21.267  1.00  0.00    -0.550 OA
ENDBRANCH   5   6
ENDBRANCH   4   5
ENDBRANCH   3   4
ENDBRANCH   2   3
ENDBRANCH   1   2
BRANCH   1   9
ATOM      9  C   UNL     1      52.257  21.196  15.054  1.00  0.00     0.000 C 
BRANCH   9  10
ATOM     10  C   UNL     1      50.802  20.910  14.650  1.00  0.00    -0.000 C 
BRANCH  10  11
ATOM     11  C   UNL     1      49.783  21.594  15.574  1.00  0.00    -0.000 C 
BRANCH  11  12
ATOM     12  C   UNL     1      48.394  20.936  15.513  1.00  0.00    -0.000 C 
BRANCH  12  13
ATOM     13  C   UNL     1      47.334  21.724  16.299  1.00  0.00    -0.003 C 
ATOM     14  C   UNL     1      47.861  22.265  17.627  1.00  0.00     0.004 C 
ENDBRANCH  12  13
ENDBRANCH  11  12
ENDBRANCH  10  11
ENDBRANCH   9  10
ENDBRANCH   1   9
TORSDOF 10
ENDMDL
MODEL 7
REMARK VINA RESULT:    -2.616      0.955      2.054
REMARK INTER + INTRA:          -5.453
REMARK INTER:                  -4.711
REMARK INTRA:                  -0.742
REMARK UNBOUND:                -1.308
REMARK SMILES CCCCCCCCCCCC(=O)[O-]
REMARK SMILES IDX 7 1 8 2 9 3 10 4 11 5 12 6 13 7 14 8 6 9 5 10 4 11 3 12 2 13
REMARK SMILES IDX 1 14
REMARK H PARENT
REMARK Flexibility Score: inf
ROOT
ATOM      1  C   UNL     1      33.719  19.688  15.122  1.00  0.00     0.000 C 
ENDROOT
BRANCH   1   2
ATOM      2  C   UNL     1      33.432  18.955  13.802  1.00  0.00     0.000 C 
BRANCH   2   3
ATOM      3  C   UNL     1      33.173  19.918  12.633  1.00  0.00     0.000 C 
BRANCH   3   4
ATOM      4  C   UNL     1      34.467  20.331  11.908  1.00  0.00     0.006 C 
BRANCH   4   5
ATOM      5  C   UNL     1      34.267  21.574  11.031  1.00  0.00     0.053 C 
BRANCH   5   6
ATOM      6  C   UNL     1      35.216  21.599   9.872  1.00  0.00     0.041 C 
ATOM      7  O   UNL     1      36.424  21.283  10.036  1.00  0.00    -0.550 OA
ATOM      8  O   UNL     1      34.774  22.001   8.618  1.00  0.00    -0.550 OA
ENDBRANCH   5   6
ENDBRANCH   4   5
ENDBRANCH   3   4
ENDBRANCH   2   3
ENDBRANCH   1   2
BRANCH   1   9
ATOM      9  C   UNL     1      35.170  19.470  15.566  1.00  0.00     0.000 C 
BRANCH   9  10
ATOM     10  C   UNL     1      35.835  20.802  15.948  1.00  0.00    -0.000 C 
BRANCH  10  11
ATOM     11  C   UNL     1      35.985  21.755  14.753  1.00  0.00    -0.000 C 
BRANCH  11  12
ATOM     12  C   UNL     1      36.815  23.005  15.093  1.00  0.00    -0.000 C 
BRANCH  12  13
ATOM     13  C   UNL     1      38.101  23.103  14.258  1.00  0.00    -0.003 C 
ATOM     14  C   UNL     1      39.200  22.161  14.747  1.00  0.00     0.004 C 
ENDBRANCH  12  13
ENDBRANCH  11  12
ENDBRANCH  10  11
ENDBRANCH   9  10
ENDBRANCH   1   9
TORSDOF 10
ENDMDL
MODEL 8
REMARK VINA RESULT:    -2.523     12.761     15.856
REMARK INTER + INTRA:          -5.307
REMARK INTER:                  -4.488
REMARK INTRA:                  -0.819
REMARK UNBOUND:                -1.308
REMARK SMILES CCCCCCCCCCCC(=O)[O-]
REMARK SMILES IDX 7 1 8 2 9 3 10 4 11 5 12 6 13 7 14 8 6 9 5 10 4 11 3 12 2 13
REMARK SMILES IDX 1 14
REMARK H PARENT
REMARK Flexibility Score: inf
ROOT
ATOM      1  C   UNL     1      50.543  22.740  18.476  1.00  0.00     0.000 C 
ENDROOT
BRANCH   1   2
ATOM      2  C   UNL     1      49.384  22.974  19.457  1.00  0.00     0.000 C 
BRANCH   2   3
ATOM      3  C   UNL     1      48.012  22.981  18.764  1.00  0.00     0.000 C 
BRANCH   3   4
ATOM      4  C   UNL     1      47.975  22.080  17.516  1.00  0.00     0.006 C 
BRANCH   4   5
ATOM      5  C   UNL     1      47.070  22.651  16.417  1.00  0.00     0.053 C 
BRANCH   5   6
ATOM      6  C   UNL     1      45.630  22.302  16.641  1.00  0.00     0.041 C 
ATOM      7  O   UNL     1      45.135  21.279  16.100  1.00  0.00    -0.550 OA
ATOM      8  O   UNL     1      44.828  23.125  17.421  1.00  0.00    -0.550 OA
ENDBRANCH   5   6
ENDBRANCH   4   5
ENDBRANCH   3   4
ENDBRANCH   2   3
ENDBRANCH   1   2
BRANCH   1   9
ATOM      9  C   UNL     1      51.895  22.822  19.196  1.00  0.00     0.000 C 
BRANCH   9  10
ATOM     10  C   UNL     1      53.039  22.380  18.269  1.00  0.00    -0.000 C 
BRANCH  10  11
ATOM     11  C   UNL     1      52.649  22.419  16.784  1.00  0.00    -0.000 C 
BRANCH  11  12
ATOM     12  C   UNL     1      52.973  21.106  16.052  1.00  0.00    -0.000 C 
BRANCH  12  13
ATOM     13  C   UNL     1      52.034  20.847  14.863  1.00  0.00    -0.003 C 
ATOM     14  C   UNL     1      50.647  21.458  15.059  1.00  0.00     0.004 C 
ENDBRANCH  12  13
ENDBRANCH  11  12
ENDBRANCH  10  11
ENDBRANCH   9  10
ENDBRANCH   1   9
TORSDOF 10
ENDMDL
