MODEL 1
REMARK VINA RESULT:    -4.115      0.000      0.000
REMARK INTER + INTRA:          -8.792
REMARK INTER:                  -7.002
REMARK INTRA:                  -1.791
REMARK UNBOUND:                -1.791
REMARK SMILES CCCCCCCCCCCCCC(=O)[O-]
REMARK SMILES IDX 8 1 9 2 10 3 11 4 12 5 13 6 14 7 15 8 16 9 7 10 6 11 5 12
REMARK SMILES IDX 4 13 3 14 2 15 1 16
REMARK H PARENT
REMARK Flexibility Score: inf
ROOT
ATOM      1  C   UNL     1      12.652  59.896  33.157  1.00  0.00     0.000 C 
ENDROOT
BRANCH   1   2
ATOM      2  C   UNL     1      11.159  59.568  32.981  1.00  0.00     0.000 C 
BRANCH   2   3
ATOM      3  C   UNL     1      10.642  59.641  31.532  1.00  0.00     0.000 C 
BRANCH   3   4
ATOM      4  C   UNL     1       9.288  60.363  31.416  1.00  0.00     0.000 C 
BRANCH   4   5
ATOM      5  C   UNL     1       8.122  59.393  31.173  1.00  0.00     0.006 C 
BRANCH   5   6
ATOM      6  C   UNL     1       6.966  59.603  32.160  1.00  0.00     0.053 C 
BRANCH   6   7
ATOM      7  C   UNL     1       6.967  58.528  33.200  1.00  0.00     0.041 C 
ATOM      8  O   UNL     1       6.012  58.436  34.017  1.00  0.00    -0.550 OA
ATOM      9  O   UNL     1       7.997  57.597  33.239  1.00  0.00    -0.550 OA
ENDBRANCH   6   7
ENDBRANCH   5   6
ENDBRANCH   4   5
ENDBRANCH   3   4
ENDBRANCH   2   3
ENDBRANCH   1   2
BRANCH   1  10
ATOM     10  C   UNL     1      12.897  61.084  34.104  1.00  0.00     0.000 C 
BRANCH  10  11
ATOM     11  C   UNL     1      11.999  62.290  33.780  1.00  0.00    -0.000 C 
BRANCH  11  12
ATOM     12  C   UNL     1      12.689  63.305  32.852  1.00  0.00    -0.000 C 
BRANCH  12  13
ATOM     13  C   UNL     1      11.815  63.691  31.648  1.00  0.00    -0.000 C 
BRANCH  13  14
ATOM     14  C   UNL     1      12.170  62.899  30.377  1.00  0.00    -0.000 C 
BRANCH  14  15
ATOM     15  C   UNL     1      13.603  62.343  30.411  1.00  0.00    -0.003 C 
ATOM     16  C   UNL     1      13.697  60.924  29.852  1.00  0.00     0.004 C 
ENDBRANCH  14  15
ENDBRANCH  13  14
ENDBRANCH  12  13
ENDBRANCH  11  12
ENDBRANCH  10  11
ENDBRANCH   1  10
TORSDOF 12
ENDMDL
MODEL 2
REMARK VINA RESULT:    -4.102      5.640      8.173
REMARK INTER + INTRA:          -8.769
REMARK INTER:                  -7.222
REMARK INTRA:                  -1.547
REMARK UNBOUND:                -1.791
REMARK SMILES CCCCCCCCCCCCCC(=O)[O-]
REMARK SMILES IDX 8 1 9 2 10 3 11 4 12 5 13 6 14 7 15 8 16 9 7 10 6 11 5 12
REMARK SMILES IDX 4 13 3 14 2 15 1 16
REMARK H PARENT
REMARK Flexibility Score: inf
ROOT
ATOM      1  C   UNL     1      14.569  62.533  31.064  1.00  0.00     0.000 C 
ENDROOT
BRANCH   1   2
ATOM      2  C   UNL     1      15.516  63.746  31.105  1.00  0.00     0.000 C 
BRANCH   2   3
ATOM      3  C   UNL     1      16.238  63.963  32.448  1.00  0.00     0.000 C 
BRANCH   3   4
ATOM      4  C   UNL     1      15.542  65.007  33.339  1.00  0.00     0.000 C 
BRANCH   4   5
ATOM      5  C   UNL     1      15.132  66.267  32.561  1.00  0.00     0.006 C 
BRANCH   5   6
ATOM      6  C   UNL     1      15.211  67.538  33.416  1.00  0.00     0.053 C 
BRANCH   6   7
ATOM      7  C   UNL     1      15.430  68.737  32.549  1.00  0.00     0.041 C 
ATOM      8  O   UNL     1      14.643  68.983  31.597  1.00  0.00    -0.550 OA
ATOM      9  O   UNL     1      16.474  69.612  32.822  1.00  0.00    -0.550 OA
ENDBRANCH   6   7
ENDBRANCH   5   6
ENDBRANCH   4   5
ENDBRANCH   3   4
ENDBRANCH   2   3
ENDBRANCH   1   2
BRANCH   1  10
ATOM     10  C   UNL     1      13.133  62.908  30.656  1.00  0.00     0.000 C 
BRANCH  10  11
ATOM     11  C   UNL     1      12.416  63.745  31.728  1.00  0.00    -0.000 C 
BRANCH  11  12
ATOM     12  C   UNL     1      11.412  62.915  32.548  1.00  0.00    -0.000 C 
BRANCH  12  13
ATOM     13  C   UNL     1      12.067  62.222  33.753  1.00  0.00    -0.000 C 
BRANCH  13  14
ATOM     14  C   UNL     1      12.152  60.694  33.586  1.00  0.00    -0.000 C 
BRANCH  14  15
ATOM     15  C   UNL     1      13.586  60.163  33.741  1.00  0.00    -0.003 C 
ATOM     16  C   UNL     1      14.499  61.141  34.481  1.00  0.00     0.004 C 
ENDBRANCH  14  15
ENDBRANCH  13  14
ENDBRANCH  12  13
ENDBRANCH  11  12
ENDBRANCH  10  11
ENDBRANCH   1  10
TORSDOF 12
ENDMDL
MODEL 3
REMARK VINA RESULT:    -4.049      5.701      7.835
REMARK INTER + INTRA:          -8.680
REMARK INTER:                  -7.540
REMARK INTRA:                  -1.140
REMARK UNBOUND:                -1.791
REMARK SMILES CCCCCCCCCCCCCC(=O)[O-]
REMARK SMILES IDX 8 1 9 2 10 3 11 4 12 5 13 6 14 7 15 8 16 9 7 10 6 11 5 12
REMARK SMILES IDX 4 13 3 14 2 15 1 16
REMARK H PARENT
REMARK Flexibility Score: inf
ROOT
ATOM      1  C   UNL     1      16.744  66.065  34.829  1.00  0.00     0.000 C 
ENDROOT
BRANCH   1   2
ATOM      2  C   UNL     1      16.109  65.623  33.497  1.00  0.00     0.000 C 
BRANCH   2   3
ATOM      3  C   UNL     1      14.574  65.727  33.442  1.00  0.00     0.000 C 
BRANCH   3   4
ATOM      4  C   UNL     1      13.928  64.598  32.620  1.00  0.00     0.000 C 
BRANCH   4   5
ATOM      5  C   UNL     1      14.949  63.835  31.761  1.00  0.00     0.006 C 
BRANCH   5   6
ATOM      6  C   UNL     1      14.797  62.313  31.879  1.00  0.00     0.053 C 
BRANCH   6   7
ATOM      7  C   UNL     1      13.682  61.831  31.008  1.00  0.00     0.041 C 
ATOM      8  O   UNL     1      13.357  62.478  29.977  1.00  0.00    -0.550 OA
ATOM      9  O   UNL     1      13.030  60.640  31.305  1.00  0.00    -0.550 OA
ENDBRANCH   6   7
ENDBRANCH   5   6
ENDBRANCH   4   5
ENDBRANCH   3   4
ENDBRANCH   2   3
ENDBRANCH   1   2
BRANCH   1  10
ATOM     10  C   UNL     1      16.082  67.322  35.419  1.00  0.00     0.000 C 
BRANCH  10  11
ATOM     11  C   UNL     1      17.112  68.360  35.896  1.00  0.00    -0.000 C 
BRANCH  11  12
ATOM     12  C   UNL     1      17.784  69.103  34.728  1.00  0.00    -0.000 C 
BRANCH  12  13
ATOM     13  C   UNL     1      16.826  70.073  34.019  1.00  0.00    -0.000 C 
BRANCH  13  14
ATOM     14  C   UNL     1      16.552  69.677  32.557  1.00  0.00    -0.000 C 
BRANCH  14  15
ATOM     15  C   UNL     1      15.168  69.037  32.369  1.00  0.00    -0.003 C 
ATOM     16  C   UNL     1      14.613  69.235  30.959  1.00  0.00     0.004 C 
ENDBRANCH  14  15
ENDBRANCH  13  14
ENDBRANCH  12  13
ENDBRANCH  11  12
ENDBRANCH  10  11
ENDBRANCH   1  10
TORSDOF 12
ENDMDL
MODEL 4
REMARK VINA RESULT:    -4.044      3.013      6.220
REMARK INTER + INTRA:          -8.672
REMARK INTER:                  -6.963
REMARK INTRA:                  -1.709
REMARK UNBOUND:                -1.791
REMARK SMILES CCCCCCCCCCCCCC(=O)[O-]
REMARK SMILES IDX 8 1 9 2 10 3 11 4 12 5 13 6 14 7 15 8 16 9 7 10 6 11 5 12
REMARK SMILES IDX 4 13 3 14 2 15 1 16
REMARK H PARENT
REMARK Flexibility Score: inf
ROOT
ATOM      1  C   UNL     1       9.679  60.201  31.567  1.00  0.00     0.000 C 
ENDROOT
BRANCH   1   2
ATOM      2  C   UNL     1      11.031  59.602  31.137  1.00  0.00     0.000 C 
BRANCH   2   3
ATOM      3  C   UNL     1      12.135  59.651  32.208  1.00  0.00     0.000 C 
BRANCH   3   4
ATOM      4  C   UNL     1      11.674  60.328  33.511  1.00  0.00     0.000 C 
BRANCH   4   5
ATOM      5  C   UNL     1      12.405  61.653  33.778  1.00  0.00     0.006 C 
BRANCH   5   6
ATOM      6  C   UNL     1      11.597  62.874  33.316  1.00  0.00     0.053 C 
BRANCH   6   7
ATOM      7  C   UNL     1      12.205  63.465  32.084  1.00  0.00     0.041 C 
ATOM      8  O   UNL     1      13.210  64.220  32.173  1.00  0.00    -0.550 OA
ATOM      9  O   UNL     1      11.692  63.146  30.833  1.00  0.00    -0.550 OA
ENDBRANCH   6   7
ENDBRANCH   5   6
ENDBRANCH   4   5
ENDBRANCH   3   4
ENDBRANCH   2   3
ENDBRANCH   1   2
BRANCH   1  10
ATOM     10  C   UNL     1       8.555  59.935  30.551  1.00  0.00     0.000 C 
BRANCH  10  11
ATOM     11  C   UNL     1       7.452  59.026  31.119  1.00  0.00    -0.000 C 
BRANCH  11  12
ATOM     12  C   UNL     1       6.725  59.661  32.318  1.00  0.00    -0.000 C 
BRANCH  12  13
ATOM     13  C   UNL     1       6.747  58.761  33.563  1.00  0.00    -0.000 C 
BRANCH  13  14
ATOM     14  C   UNL     1       7.717  57.574  33.422  1.00  0.00    -0.000 C 
BRANCH  14  15
ATOM     15  C   UNL     1       8.933  57.693  34.354  1.00  0.00    -0.003 C 
ATOM     16  C   UNL     1      10.128  56.871  33.872  1.00  0.00     0.004 C 
ENDBRANCH  14  15
ENDBRANCH  13  14
ENDBRANCH  12  13
ENDBRANCH  11  12
ENDBRANCH  10  11
ENDBRANCH   1  10
TORSDOF 12
ENDMDL
MODEL 5
REMARK VINA RESULT:    -4.012      7.550     10.362
REMARK INTER + INTRA:          -8.617
REMARK INTER:                  -7.853
REMARK INTRA:                  -0.764
REMARK UNBOUND:                -1.791
REMARK SMILES CCCCCCCCCCCCCC(=O)[O-]
REMARK SMILES IDX 8 1 9 2 10 3 11 4 12 5 13 6 14 7 15 8 16 9 7 10 6 11 5 12
REMARK SMILES IDX 4 13 3 14 2 15 1 16
REMARK H PARENT
REMARK Flexibility Score: inf
ROOT
ATOM      1  C   UNL     1      15.157  67.873  32.370  1.00  0.00     0.000 C 
ENDROOT
BRANCH   1   2
ATOM      2  C   UNL     1      15.546  69.276  32.869  1.00  0.00     0.000 C 
BRANCH   2   3
ATOM      3  C   UNL     1      17.047  69.474  33.149  1.00  0.00     0.000 C 
BRANCH   3   4
ATOM      4  C   UNL     1      17.316  70.234  34.459  1.00  0.00     0.000 C 
BRANCH   4   5
ATOM      5  C   UNL     1      18.139  69.410  35.462  1.00  0.00     0.006 C 
BRANCH   5   6
ATOM      6  C   UNL     1      17.309  68.315  36.145  1.00  0.00     0.053 C 
BRANCH   6   7
ATOM      7  C   UNL     1      17.838  68.039  37.516  1.00  0.00     0.041 C 
ATOM      8  O   UNL     1      18.502  68.917  38.128  1.00  0.00    -0.550 OA
ATOM      9  O   UNL     1      17.558  66.829  38.140  1.00  0.00    -0.550 OA
ENDBRANCH   6   7
ENDBRANCH   5   6
ENDBRANCH   4   5
ENDBRANCH   3   4
ENDBRANCH   2   3
ENDBRANCH   1   2
BRANCH   1  10
ATOM     10  C   UNL     1      15.138  66.822  33.493  1.00  0.00     0.000 C 
BRANCH  10  11
ATOM     11  C   UNL     1      14.671  65.442  33.001  1.00  0.00    -0.000 C 
BRANCH  11  12
ATOM     12  C   UNL     1      15.830  64.586  32.461  1.00  0.00    -0.000 C 
BRANCH  12  13
ATOM     13  C   UNL     1      15.389  63.643  31.330  1.00  0.00    -0.000 C 
BRANCH  13  14
ATOM     14  C   UNL     1      14.080  62.899  31.654  1.00  0.00    -0.000 C 
BRANCH  14  15
ATOM     15  C   UNL     1      13.264  62.570  30.394  1.00  0.00    -0.003 C 
ATOM     16  C   UNL     1      11.774  62.863  30.565  1.00  0.00     0.004 C 
ENDBRANCH  14  15
ENDBRANCH  13  14
ENDBRANCH  12  13
ENDBRANCH  11  12
ENDBRANCH  10  11
ENDBRANCH   1  10
TORSDOF 12
ENDMDL
MODEL 6
REMARK VINA RESULT:    -3.933      6.895      9.639
REMARK INTER + INTRA:          -8.482
REMARK INTER:                  -7.416
REMARK INTRA:                  -1.066
REMARK UNBOUND:                -1.791
REMARK SMILES CCCCCCCCCCCCCC(=O)[O-]
REMARK SMILES IDX 8 1 9 2 10 3 11 4 12 5 13 6 14 7 15 8 16 9 7 10 6 11 5 12
REMARK SMILES IDX 4 13 3 14 2 15 1 16
REMARK H PARENT
REMARK Flexibility Score: inf
ROOT
ATOM      1  C   UNL     1      15.739  65.293  33.337  1.00  0.00     0.000 C 
ENDROOT
BRANCH   1   2
ATOM      2  C   UNL     1      14.905  66.581  33.455  1.00  0.00     0.000 C 
BRANCH   2   3
ATOM      3  C   UNL     1      15.059  67.566  32.281  1.00  0.00     0.000 C 
BRANCH   3   4
ATOM      4  C   UNL     1      15.248  69.022  32.743  1.00  0.00     0.000 C 
BRANCH   4   5
ATOM      5  C   UNL     1      16.728  69.407  32.890  1.00  0.00     0.006 C 
BRANCH   5   6
ATOM      6  C   UNL     1      17.016  70.149  34.202  1.00  0.00     0.053 C 
BRANCH   6   7
ATOM      7  C   UNL     1      17.762  69.263  35.149  1.00  0.00     0.041 C 
ATOM      8  O   UNL     1      18.777  69.697  35.756  1.00  0.00    -0.550 OA
ATOM      9  O   UNL     1      17.309  67.974  35.399  1.00  0.00    -0.550 OA
ENDBRANCH   6   7
ENDBRANCH   5   6
ENDBRANCH   4   5
ENDBRANCH   3   4
ENDBRANCH   2   3
ENDBRANCH   1   2
BRANCH   1  10
ATOM     10  C   UNL     1      14.873  64.033  33.159  1.00  0.00     0.000 C 
BRANCH  10  11
ATOM     11  C   UNL     1      14.029  64.075  31.874  1.00  0.00    -0.000 C 
BRANCH  11  12
ATOM     12  C   UNL     1      12.547  63.753  32.132  1.00  0.00    -0.000 C 
BRANCH  12  13
ATOM     13  C   UNL     1      12.288  63.285  33.573  1.00  0.00    -0.000 C 
BRANCH  13  14
ATOM     14  C   UNL     1      11.939  61.788  33.659  1.00  0.00    -0.000 C 
BRANCH  14  15
ATOM     15  C   UNL     1      13.114  60.938  34.168  1.00  0.00    -0.003 C 
ATOM     16  C   UNL     1      13.969  60.374  33.034  1.00  0.00     0.004 C 
ENDBRANCH  14  15
ENDBRANCH  13  14
ENDBRANCH  12  13
ENDBRANCH  11  12
ENDBRANCH  10  11
ENDBRANCH   1  10
TORSDOF 12
ENDMDL
MODEL 7
REMARK VINA RESULT:    -3.876      2.993      6.038
REMARK INTER + INTRA:          -8.386
REMARK INTER:                  -6.854
REMARK INTRA:                  -1.532
REMARK UNBOUND:                -1.791
REMARK SMILES CCCCCCCCCCCCCC(=O)[O-]
REMARK SMILES IDX 8 1 9 2 10 3 11 4 12 5 13 6 14 7 15 8 16 9 7 10 6 11 5 12
REMARK SMILES IDX 4 13 3 14 2 15 1 16
REMARK H PARENT
REMARK Flexibility Score: inf
ROOT
ATOM      1  C   UNL     1       9.281  57.899  33.758  1.00  0.00     0.000 C 
ENDROOT
BRANCH   1   2
ATOM      2  C   UNL     1      10.557  58.273  32.982  1.00  0.00     0.000 C 
BRANCH   2   3
ATOM      3  C   UNL     1      10.640  59.744  32.536  1.00  0.00     0.000 C 
BRANCH   3   4
ATOM      4  C   UNL     1      12.010  60.381  32.827  1.00  0.00     0.000 C 
BRANCH   4   5
ATOM      5  C   UNL     1      11.892  61.712  33.586  1.00  0.00     0.006 C 
BRANCH   5   6
ATOM      6  C   UNL     1      11.199  62.803  32.758  1.00  0.00     0.053 C 
BRANCH   6   7
ATOM      7  C   UNL     1      12.011  63.132  31.546  1.00  0.00     0.041 C 
ATOM      8  O   UNL     1      11.526  62.966  30.395  1.00  0.00    -0.550 OA
ATOM      9  O   UNL     1      13.285  63.668  31.686  1.00  0.00    -0.550 OA
ENDBRANCH   6   7
ENDBRANCH   5   6
ENDBRANCH   4   5
ENDBRANCH   3   4
ENDBRANCH   2   3
ENDBRANCH   1   2
BRANCH   1  10
ATOM     10  C   UNL     1       8.467  56.789  33.071  1.00  0.00     0.000 C 
BRANCH  10  11
ATOM     11  C   UNL     1       7.004  57.197  32.826  1.00  0.00    -0.000 C 
BRANCH  11  12
ATOM     12  C   UNL     1       6.682  58.596  33.381  1.00  0.00    -0.000 C 
BRANCH  12  13
ATOM     13  C   UNL     1       6.197  59.564  32.291  1.00  0.00    -0.000 C 
BRANCH  13  14
ATOM     14  C   UNL     1       6.443  59.030  30.868  1.00  0.00    -0.000 C 
BRANCH  14  15
ATOM     15  C   UNL     1       7.744  59.568  30.254  1.00  0.00    -0.003 C 
ATOM     16  C   UNL     1       8.602  58.467  29.631  1.00  0.00     0.004 C 
ENDBRANCH  14  15
ENDBRANCH  13  14
ENDBRANCH  12  13
ENDBRANCH  11  12
ENDBRANCH  10  11
ENDBRANCH   1  10
TORSDOF 12
ENDMDL
MODEL 8
REMARK VINA RESULT:    -3.815      6.780      9.395
REMARK INTER + INTRA:          -8.282
REMARK INTER:                  -7.057
REMARK INTRA:                  -1.226
REMARK UNBOUND:                -1.791
REMARK SMILES CCCCCCCCCCCCCC(=O)[O-]
REMARK SMILES IDX 8 1 9 2 10 3 11 4 12 5 13 6 14 7 15 8 16 9 7 10 6 11 5 12
REMARK SMILES IDX 4 13 3 14 2 15 1 16
REMARK H PARENT
REMARK Flexibility Score: inf
ROOT
ATOM      1  C   UNL     1      15.349  64.144  32.788  1.00  0.00     0.000 C 
ENDROOT
BRANCH   1   2
ATOM      2  C   UNL     1      14.493  65.413  32.626  1.00  0.00     0.000 C 
BRANCH   2   3
ATOM      3  C   UNL     1      14.850  66.565  33.583  1.00  0.00     0.000 C 
BRANCH   3   4
ATOM      4  C   UNL     1      16.024  66.224  34.518  1.00  0.00     0.000 C 
BRANCH   4   5
ATOM      5  C   UNL     1      17.096  67.324  34.544  1.00  0.00     0.006 C 
BRANCH   5   6
ATOM      6  C   UNL     1      16.604  68.641  33.929  1.00  0.00     0.053 C 
BRANCH   6   7
ATOM      7  C   UNL     1      17.292  69.805  34.568  1.00  0.00     0.041 C 
ATOM      8  O   UNL     1      17.083  70.974  34.147  1.00  0.00    -0.550 OA
ATOM      9  O   UNL     1      18.126  69.606  35.661  1.00  0.00    -0.550 OA
ENDBRANCH   6   7
ENDBRANCH   5   6
ENDBRANCH   4   5
ENDBRANCH   3   4
ENDBRANCH   2   3
ENDBRANCH   1   2
BRANCH   1  10
ATOM     10  C   UNL     1      15.710  63.490  31.443  1.00  0.00     0.000 C 
BRANCH  10  11
ATOM     11  C   UNL     1      15.496  61.967  31.453  1.00  0.00    -0.000 C 
BRANCH  11  12
ATOM     12  C   UNL     1      14.029  61.576  31.203  1.00  0.00    -0.000 C 
BRANCH  12  13
ATOM     13  C   UNL     1      13.276  62.621  30.363  1.00  0.00    -0.000 C 
BRANCH  13  14
ATOM     14  C   UNL     1      11.903  62.984  30.957  1.00  0.00    -0.000 C 
BRANCH  14  15
ATOM     15  C   UNL     1      11.633  62.273  32.292  1.00  0.00    -0.003 C 
ATOM     16  C   UNL     1      11.663  63.228  33.485  1.00  0.00     0.004 C 
ENDBRANCH  14  15
ENDBRANCH  13  14
ENDBRANCH  12  13
ENDBRANCH  11  12
ENDBRANCH  10  11
ENDBRANCH   1  10
TORSDOF 12
ENDMDL
MODEL 9
REMARK VINA RESULT:    -3.804     10.185     12.556
REMARK INTER + INTRA:          -8.264
REMARK INTER:                  -6.866
REMARK INTRA:                  -1.398
REMARK UNBOUND:                -1.791
REMARK SMILES CCCCCCCCCCCCCC(=O)[O-]
REMARK SMILES IDX 8 1 9 2 10 3 11 4 12 5 13 6 14 7 15 8 16 9 7 10 6 11 5 12
REMARK SMILES IDX 4 13 3 14 2 15 1 16
REMARK H PARENT
REMARK Flexibility Score: inf
ROOT
ATOM      1  C   UNL     1      18.983  65.662  37.310  1.00  0.00     0.000 C 
ENDROOT
BRANCH   1   2
ATOM      2  C   UNL     1      17.682  65.068  36.741  1.00  0.00     0.000 C 
BRANCH   2   3
ATOM      3  C   UNL     1      17.114  65.803  35.513  1.00  0.00     0.000 C 
BRANCH   3   4
ATOM      4  C   UNL     1      16.078  66.878  35.887  1.00  0.00     0.000 C 
BRANCH   4   5
ATOM      5  C   UNL     1      16.680  68.292  35.919  1.00  0.00     0.006 C 
BRANCH   5   6
ATOM      6  C   UNL     1      17.450  68.633  34.636  1.00  0.00     0.053 C 
BRANCH   6   7
ATOM      7  C   UNL     1      16.762  69.734  33.893  1.00  0.00     0.041 C 
ATOM      8  O   UNL     1      15.845  69.467  33.071  1.00  0.00    -0.550 OA
ATOM      9  O   UNL     1      17.098  71.058  34.142  1.00  0.00    -0.550 OA
ENDBRANCH   6   7
ENDBRANCH   5   6
ENDBRANCH   4   5
ENDBRANCH   3   4
ENDBRANCH   2   3
ENDBRANCH   1   2
BRANCH   1  10
ATOM     10  C   UNL     1      18.956  65.805  38.842  1.00  0.00     0.000 C 
BRANCH  10  11
ATOM     11  C   UNL     1      17.694  66.527  39.344  1.00  0.00    -0.000 C 
BRANCH  11  12
ATOM     12  C   UNL     1      17.862  68.057  39.368  1.00  0.00    -0.000 C 
BRANCH  12  13
ATOM     13  C   UNL     1      19.285  68.487  39.756  1.00  0.00    -0.000 C 
BRANCH  13  14
ATOM     14  C   UNL     1      19.342  69.185  41.127  1.00  0.00    -0.000 C 
BRANCH  14  15
ATOM     15  C   UNL     1      20.474  68.644  42.015  1.00  0.00    -0.003 C 
ATOM     16  C   UNL     1      21.366  67.640  41.287  1.00  0.00     0.004 C 
ENDBRANCH  14  15
ENDBRANCH  13  14
ENDBRANCH  12  13
ENDBRANCH  11  12
ENDBRANCH  10  11
ENDBRANCH   1  10
TORSDOF 12
ENDMDL
