MODEL 1
REMARK VINA RESULT:    -5.216      0.000      0.000
REMARK INTER + INTRA:          -6.119
REMARK INTER:                  -5.979
REMARK INTRA:                  -0.140
REMARK UNBOUND:                -0.140
REMARK SMILES O=C([O-])C=Cc1ccc(O)cc1
REMARK SMILES IDX 6 1 7 2 12 3 8 4 11 5 9 6 5 7 4 8 2 9 1 10 3 11 10 12
REMARK H PARENT 10 13
REMARK Flexibility Score: inf
ROOT
ATOM      1  C   UNL     1     -30.209 -20.556 -33.007  1.00  0.00    -0.025 A 
ATOM      2  C   UNL     1     -30.846 -20.878 -31.791  1.00  0.00     0.012 A 
ATOM      3  C   UNL     1     -29.139 -19.646 -32.991  1.00  0.00     0.012 A 
ATOM      4  C   UNL     1     -30.401 -20.316 -30.590  1.00  0.00     0.047 A 
ATOM      5  C   UNL     1     -28.697 -19.088 -31.788  1.00  0.00     0.047 A 
ATOM      6  C   UNL     1     -29.326 -19.424 -30.583  1.00  0.00     0.115 A 
ENDROOT
BRANCH   1   7
ATOM      7  C   UNL     1     -30.648 -21.114 -34.311  1.00  0.00     0.010 C 
ATOM      8  C   UNL     1     -31.740 -21.877 -34.466  1.00  0.00     0.025 C 
BRANCH   8   9
ATOM      9  C   UNL     1     -32.137 -22.422 -35.775  1.00  0.00     0.064 C 
ATOM     10  O   UNL     1     -33.008 -23.328 -35.867  1.00  0.00    -0.545 OA
ATOM     11  O   UNL     1     -31.542 -21.929 -36.929  1.00  0.00    -0.545 OA
ENDBRANCH   8   9
ENDBRANCH   1   7
BRANCH   6  12
ATOM     12  O   UNL     1     -28.894 -18.875 -29.378  1.00  0.00    -0.508 OA
ATOM     13  H   UNL     1     -28.684 -19.457 -28.576  1.00  0.00     0.293 HD
ENDBRANCH   6  12
TORSDOF 3
ENDMDL
MODEL 2
REMARK VINA RESULT:    -5.202      0.098      1.399
REMARK INTER + INTRA:          -6.103
REMARK INTER:                  -5.950
REMARK INTRA:                  -0.153
REMARK UNBOUND:                -0.140
REMARK SMILES O=C([O-])C=Cc1ccc(O)cc1
REMARK SMILES IDX 6 1 7 2 12 3 8 4 11 5 9 6 5 7 4 8 2 9 1 10 3 11 10 12
REMARK H PARENT 10 13
REMARK Flexibility Score: inf
ROOT
ATOM      1  C   UNL     1     -30.128 -20.484 -33.065  1.00  0.00    -0.025 A 
ATOM      2  C   UNL     1     -28.981 -19.666 -32.988  1.00  0.00     0.012 A 
ATOM      3  C   UNL     1     -30.835 -20.772 -31.886  1.00  0.00     0.012 A 
ATOM      4  C   UNL     1     -28.573 -19.136 -31.760  1.00  0.00     0.047 A 
ATOM      5  C   UNL     1     -30.424 -20.238 -30.661  1.00  0.00     0.047 A 
ATOM      6  C   UNL     1     -29.292 -19.417 -30.595  1.00  0.00     0.115 A 
ENDROOT
BRANCH   1   7
ATOM      7  C   UNL     1     -30.598 -21.082 -34.340  1.00  0.00     0.010 C 
ATOM      8  C   UNL     1     -31.691 -21.850 -34.446  1.00  0.00     0.025 C 
BRANCH   8   9
ATOM      9  C   UNL     1     -32.119 -22.435 -35.727  1.00  0.00     0.064 C 
ATOM     10  O   UNL     1     -32.986 -23.349 -35.770  1.00  0.00    -0.545 OA
ATOM     11  O   UNL     1     -31.556 -21.974 -36.910  1.00  0.00    -0.545 OA
ENDBRANCH   8   9
ENDBRANCH   1   7
BRANCH   6  12
ATOM     12  O   UNL     1     -28.873 -18.879 -29.380  1.00  0.00    -0.508 OA
ATOM     13  H   UNL     1     -29.537 -18.542 -28.693  1.00  0.00     0.293 HD
ENDBRANCH   6  12
TORSDOF 3
ENDMDL
MODEL 3
REMARK VINA RESULT:    -4.518      1.503      1.811
REMARK INTER + INTRA:          -5.319
REMARK INTER:                  -5.182
REMARK INTRA:                  -0.137
REMARK UNBOUND:                -0.140
REMARK SMILES O=C([O-])C=Cc1ccc(O)cc1
REMARK SMILES IDX 6 1 7 2 12 3 8 4 11 5 9 6 5 7 4 8 2 9 1 10 3 11 10 12
REMARK H PARENT 10 13
REMARK Flexibility Score: inf
ROOT
ATOM      1  C   UNL     1     -31.206 -20.832 -33.118  1.00  0.00    -0.025 A 
ATOM      2  C   UNL     1     -30.755 -21.509 -31.965  1.00  0.00     0.012 A 
ATOM      3  C   UNL     1     -31.686 -19.519 -32.988  1.00  0.00     0.012 A 
ATOM      4  C   UNL     1     -30.766 -20.868 -30.721  1.00  0.00     0.047 A 
ATOM      5  C   UNL     1     -31.694 -18.883 -31.744  1.00  0.00     0.047 A 
ATOM      6  C   UNL     1     -31.231 -19.556 -30.606  1.00  0.00     0.115 A 
ENDROOT
BRANCH   1   7
ATOM      7  C   UNL     1     -31.227 -21.469 -34.459  1.00  0.00     0.010 C 
ATOM      8  C   UNL     1     -32.269 -22.162 -34.939  1.00  0.00     0.025 C 
BRANCH   8   9
ATOM      9  C   UNL     1     -32.248 -22.789 -36.271  1.00  0.00     0.064 C 
ATOM     10  O   UNL     1     -31.527 -22.331 -37.197  1.00  0.00    -0.545 OA
ATOM     11  O   UNL     1     -33.038 -23.906 -36.512  1.00  0.00    -0.545 OA
ENDBRANCH   8   9
ENDBRANCH   1   7
BRANCH   6  12
ATOM     12  O   UNL     1     -31.234 -18.932 -29.361  1.00  0.00    -0.508 OA
ATOM     13  H   UNL     1     -31.139 -19.463 -28.503  1.00  0.00     0.293 HD
ENDBRANCH   6  12
TORSDOF 3
ENDMDL
MODEL 4
REMARK VINA RESULT:    -4.423      2.129      6.303
REMARK INTER + INTRA:          -5.210
REMARK INTER:                  -5.070
REMARK INTRA:                  -0.140
REMARK UNBOUND:                -0.140
REMARK SMILES O=C([O-])C=Cc1ccc(O)cc1
REMARK SMILES IDX 6 1 7 2 12 3 8 4 11 5 9 6 5 7 4 8 2 9 1 10 3 11 10 12
REMARK H PARENT 10 13
REMARK Flexibility Score: inf
ROOT
ATOM      1  C   UNL     1     -32.199 -21.853 -35.336  1.00  0.00    -0.025 A 
ATOM      2  C   UNL     1     -31.559 -22.412 -36.461  1.00  0.00     0.012 A 
ATOM      3  C   UNL     1     -33.480 -21.298 -35.492  1.00  0.00     0.012 A 
ATOM      4  C   UNL     1     -32.202 -22.432 -37.703  1.00  0.00     0.047 A 
ATOM      5  C   UNL     1     -34.120 -21.322 -36.734  1.00  0.00     0.047 A 
ATOM      6  C   UNL     1     -33.483 -21.891 -37.844  1.00  0.00     0.115 A 
ENDROOT
BRANCH   1   7
ATOM      7  C   UNL     1     -31.557 -21.795 -33.999  1.00  0.00     0.010 C 
ATOM      8  C   UNL     1     -31.228 -20.653 -33.378  1.00  0.00     0.025 C 
BRANCH   8   9
ATOM      9  C   UNL     1     -30.581 -20.637 -32.056  1.00  0.00     0.064 C 
ATOM     10  O   UNL     1     -30.856 -21.503 -31.183  1.00  0.00    -0.545 OA
ATOM     11  O   UNL     1     -29.650 -19.648 -31.764  1.00  0.00    -0.545 OA
ENDBRANCH   8   9
ENDBRANCH   1   7
BRANCH   6  12
ATOM     12  O   UNL     1     -34.111 -21.921 -39.087  1.00  0.00    -0.508 OA
ATOM     13  H   UNL     1     -33.692 -21.489 -39.902  1.00  0.00     0.293 HD
ENDBRANCH   6  12
TORSDOF 3
ENDMDL
MODEL 5
REMARK VINA RESULT:    -3.651      1.989      6.034
REMARK INTER + INTRA:          -4.325
REMARK INTER:                  -4.185
REMARK INTRA:                  -0.140
REMARK UNBOUND:                -0.140
REMARK SMILES O=C([O-])C=Cc1ccc(O)cc1
REMARK SMILES IDX 6 1 7 2 12 3 8 4 11 5 9 6 5 7 4 8 2 9 1 10 3 11 10 12
REMARK H PARENT 10 13
REMARK Flexibility Score: inf
ROOT
ATOM      1  C   UNL     1     -31.929 -21.512 -34.928  1.00  0.00    -0.025 A 
ATOM      2  C   UNL     1     -33.249 -21.470 -35.425  1.00  0.00     0.012 A 
ATOM      3  C   UNL     1     -30.951 -22.205 -35.661  1.00  0.00     0.012 A 
ATOM      4  C   UNL     1     -33.567 -22.089 -36.639  1.00  0.00     0.047 A 
ATOM      5  C   UNL     1     -31.273 -22.821 -36.873  1.00  0.00     0.047 A 
ATOM      6  C   UNL     1     -32.582 -22.763 -37.367  1.00  0.00     0.115 A 
ENDROOT
BRANCH   1   7
ATOM      7  C   UNL     1     -31.541 -20.882 -33.641  1.00  0.00     0.010 C 
ATOM      8  C   UNL     1     -31.180 -21.573 -32.551  1.00  0.00     0.025 C 
BRANCH   8   9
ATOM      9  C   UNL     1     -30.812 -20.913 -31.288  1.00  0.00     0.064 C 
ATOM     10  O   UNL     1     -30.828 -21.539 -30.195  1.00  0.00    -0.545 OA
ATOM     11  O   UNL     1     -30.442 -19.574 -31.301  1.00  0.00    -0.545 OA
ENDBRANCH   8   9
ENDBRANCH   1   7
BRANCH   6  12
ATOM     12  O   UNL     1     -32.915 -23.373 -38.574  1.00  0.00    -0.508 OA
ATOM     13  H   UNL     1     -33.307 -24.307 -38.605  1.00  0.00     0.293 HD
ENDBRANCH   6  12
TORSDOF 3
ENDMDL
MODEL 6
REMARK VINA RESULT:    -3.453      1.685      2.686
REMARK INTER + INTRA:          -4.098
REMARK INTER:                  -3.958
REMARK INTRA:                  -0.140
REMARK UNBOUND:                -0.140
REMARK SMILES O=C([O-])C=Cc1ccc(O)cc1
REMARK SMILES IDX 6 1 7 2 12 3 8 4 11 5 9 6 5 7 4 8 2 9 1 10 3 11 10 12
REMARK H PARENT 10 13
REMARK Flexibility Score: inf
ROOT
ATOM      1  C   UNL     1     -30.985 -21.491 -34.762  1.00  0.00    -0.025 A 
ATOM      2  C   UNL     1     -29.803 -20.741 -34.590  1.00  0.00     0.012 A 
ATOM      3  C   UNL     1     -31.733 -21.848 -33.628  1.00  0.00     0.012 A 
ATOM      4  C   UNL     1     -29.400 -20.342 -33.311  1.00  0.00     0.047 A 
ATOM      5  C   UNL     1     -31.327 -21.445 -32.352  1.00  0.00     0.047 A 
ATOM      6  C   UNL     1     -30.159 -20.689 -32.191  1.00  0.00     0.115 A 
ENDROOT
BRANCH   1   7
ATOM      7  C   UNL     1     -31.451 -21.951 -36.095  1.00  0.00     0.010 C 
ATOM      8  C   UNL     1     -31.470 -23.236 -36.476  1.00  0.00     0.025 C 
BRANCH   8   9
ATOM      9  C   UNL     1     -31.929 -23.652 -37.812  1.00  0.00     0.064 C 
ATOM     10  O   UNL     1     -31.812 -24.845 -38.200  1.00  0.00    -0.545 OA
ATOM     11  O   UNL     1     -32.501 -22.713 -38.660  1.00  0.00    -0.545 OA
ENDBRANCH   8   9
ENDBRANCH   1   7
BRANCH   6  12
ATOM     12  O   UNL     1     -29.745 -20.282 -30.925  1.00  0.00    -0.508 OA
ATOM     13  H   UNL     1     -30.162 -19.482 -30.463  1.00  0.00     0.293 HD
ENDBRANCH   6  12
TORSDOF 3
ENDMDL
MODEL 7
REMARK VINA RESULT:    -3.133      1.609      6.022
REMARK INTER + INTRA:          -3.732
REMARK INTER:                  -3.594
REMARK INTRA:                  -0.137
REMARK UNBOUND:                -0.140
REMARK SMILES O=C([O-])C=Cc1ccc(O)cc1
REMARK SMILES IDX 6 1 7 2 12 3 8 4 11 5 9 6 5 7 4 8 2 9 1 10 3 11 10 12
REMARK H PARENT 10 13
REMARK Flexibility Score: inf
ROOT
ATOM      1  C   UNL     1     -32.256 -20.576 -34.014  1.00  0.00    -0.025 A 
ATOM      2  C   UNL     1     -31.799 -21.863 -34.367  1.00  0.00     0.012 A 
ATOM      3  C   UNL     1     -33.319 -20.012 -34.739  1.00  0.00     0.012 A 
ATOM      4  C   UNL     1     -32.414 -22.570 -35.406  1.00  0.00     0.047 A 
ATOM      5  C   UNL     1     -33.931 -20.723 -35.775  1.00  0.00     0.047 A 
ATOM      6  C   UNL     1     -33.480 -22.006 -36.110  1.00  0.00     0.115 A 
ENDROOT
BRANCH   1   7
ATOM      7  C   UNL     1     -31.632 -19.778 -32.929  1.00  0.00     0.010 C 
ATOM      8  C   UNL     1     -30.844 -20.300 -31.978  1.00  0.00     0.025 C 
BRANCH   8   9
ATOM      9  C   UNL     1     -30.252 -19.477 -30.910  1.00  0.00     0.064 C 
ATOM     10  O   UNL     1     -29.028 -19.180 -30.917  1.00  0.00    -0.545 OA
ATOM     11  O   UNL     1     -31.058 -19.020 -29.875  1.00  0.00    -0.545 OA
ENDBRANCH   8   9
ENDBRANCH   1   7
BRANCH   6  12
ATOM     12  O   UNL     1     -34.083 -22.724 -37.141  1.00  0.00    -0.508 OA
ATOM     13  H   UNL     1     -34.778 -23.437 -36.954  1.00  0.00     0.293 HD
ENDBRANCH   6  12
TORSDOF 3
ENDMDL
MODEL 8
REMARK VINA RESULT:    -2.451      4.891      6.740
REMARK INTER + INTRA:          -2.949
REMARK INTER:                  -2.811
REMARK INTRA:                  -0.138
REMARK UNBOUND:                -0.140
REMARK SMILES O=C([O-])C=Cc1ccc(O)cc1
REMARK SMILES IDX 6 1 7 2 12 3 8 4 11 5 9 6 5 7 4 8 2 9 1 10 3 11 10 12
REMARK H PARENT 10 13
REMARK Flexibility Score: inf
ROOT
ATOM      1  C   UNL     1     -32.622 -24.050 -37.522  1.00  0.00    -0.025 A 
ATOM      2  C   UNL     1     -32.838 -22.918 -38.335  1.00  0.00     0.012 A 
ATOM      3  C   UNL     1     -32.616 -23.891 -36.126  1.00  0.00     0.012 A 
ATOM      4  C   UNL     1     -33.065 -21.665 -37.755  1.00  0.00     0.047 A 
ATOM      5  C   UNL     1     -32.845 -22.637 -35.551  1.00  0.00     0.047 A 
ATOM      6  C   UNL     1     -33.072 -21.520 -36.366  1.00  0.00     0.115 A 
ENDROOT
BRANCH   1   7
ATOM      7  C   UNL     1     -32.365 -25.399 -38.085  1.00  0.00     0.010 C 
ATOM      8  C   UNL     1     -33.287 -26.370 -38.148  1.00  0.00     0.025 C 
BRANCH   8   9
ATOM      9  C   UNL     1     -32.991 -27.701 -38.703  1.00  0.00     0.064 C 
ATOM     10  O   UNL     1     -31.839 -27.991 -39.123  1.00  0.00    -0.545 OA
ATOM     11  O   UNL     1     -33.999 -28.654 -38.767  1.00  0.00    -0.545 OA
ENDBRANCH   8   9
ENDBRANCH   1   7
BRANCH   6  12
ATOM     12  O   UNL     1     -33.301 -20.266 -35.804  1.00  0.00    -0.508 OA
ATOM     13  H   UNL     1     -32.753 -19.458 -36.073  1.00  0.00     0.293 HD
ENDBRANCH   6  12
TORSDOF 3
ENDMDL
