MODEL 1
REMARK VINA RESULT:    -6.736      0.000      0.000
REMARK INTER + INTRA:         -10.613
REMARK INTER:                  -9.690
REMARK INTRA:                  -0.923
REMARK UNBOUND:                -0.923
REMARK SMILES O=c1cc(-c2ccc(O)c(O)c2)oc2cc(O[C@H]3O[C@H](CO)[C@H](O)[C@@H](O)[C@H]3O)cc(O)c12
REMARK SMILES IDX 17 1 16 2 4 3 3 4 13 5 2 6 14 7 1 8 32 9 15 10 30 11 29 12
REMARK SMILES IDX 5 13 6 14 7 15 8 16 12 17 10 18 9 19 11 21 31 23 18 25 27 26
REMARK SMILES IDX 19 27 25 28 20 29 23 30 28 31 26 33 21 35 22 36 24 38
REMARK H PARENT 9 20 11 22 31 24 28 32 26 34 22 37 24 39
REMARK Flexibility Score: inf
ROOT
ATOM      1  O   UNL     1      23.260   8.401  30.483  1.00  0.00    -0.462 OA
ENDROOT
BRANCH   1   2
ATOM      2  C   UNL     1      24.654   8.495  30.335  1.00  0.00     0.130 A 
ATOM      3  C   UNL     1      28.440   7.222  27.726  1.00  0.00     0.138 A 
ATOM      4  C   UNL     1      29.329   7.919  28.561  1.00  0.00     0.100 A 
ATOM      5  O   UNL     1      27.139   7.227  28.008  1.00  0.00    -0.456 OA
ATOM      6  C   UNL     1      28.832   8.617  29.661  1.00  0.00     0.197 A 
ATOM      7  C   UNL     1      26.618   7.878  29.044  1.00  0.00     0.146 A 
ATOM      8  O   UNL     1      29.638   9.239  30.406  1.00  0.00    -0.289 OA
ATOM      9  C   UNL     1      27.447   8.611  29.923  1.00  0.00     0.107 A 
ATOM     10  C   UNL     1      25.238   7.829  29.256  1.00  0.00     0.094 A 
ATOM     11  C   UNL     1      26.862   9.293  31.013  1.00  0.00     0.134 A 
ATOM     12  C   UNL     1      25.474   9.233  31.210  1.00  0.00     0.093 A 
BRANCH   3  13
ATOM     13  C   UNL     1      28.910   6.460  26.543  1.00  0.00     0.021 A 
ATOM     14  C   UNL     1      30.272   6.495  26.194  1.00  0.00     0.016 A 
ATOM     15  C   UNL     1      30.741   5.782  25.089  1.00  0.00     0.051 A 
ATOM     16  C   UNL     1      29.865   5.014  24.317  1.00  0.00     0.157 A 
ATOM     17  C   UNL     1      28.033   5.674  25.770  1.00  0.00     0.062 A 
ATOM     18  C   UNL     1      28.504   4.956  24.661  1.00  0.00     0.158 A 
BRANCH  16  19
ATOM     19  O   UNL     1      30.362   4.315  23.219  1.00  0.00    -0.504 OA
ATOM     20  H   UNL     1      31.184   3.726  23.283  1.00  0.00     0.293 HD
ENDBRANCH  16  19
BRANCH  18  21
ATOM     21  O   UNL     1      27.626   4.183  23.903  1.00  0.00    -0.504 OA
ATOM     22  H   UNL     1      27.907   3.769  23.022  1.00  0.00     0.293 HD
ENDBRANCH  18  21
ENDBRANCH   3  13
BRANCH  11  23
ATOM     23  O   UNL     1      27.647  10.029  31.903  1.00  0.00    -0.507 OA
ATOM     24  H   UNL     1      28.620  10.231  31.715  1.00  0.00     0.293 HD
ENDBRANCH  11  23
ENDBRANCH   1   2
BRANCH   1  25
ATOM     25  C   UNL     1      22.305   9.461  30.326  1.00  0.00     0.339 C 
ATOM     26  C   UNL     1      20.971   9.170  31.056  1.00  0.00     0.214 C 
ATOM     27  O   UNL     1      22.084   9.721  28.949  1.00  0.00    -0.332 OA
ATOM     28  C   UNL     1      20.143   8.071  30.352  1.00  0.00     0.180 C 
ATOM     29  C   UNL     1      21.522   8.599  28.287  1.00  0.00     0.179 C 
ATOM     30  C   UNL     1      20.103   8.291  28.826  1.00  0.00     0.177 C 
BRANCH  26  31
ATOM     31  O   UNL     1      21.204   8.824  32.396  1.00  0.00    -0.384 OA
ATOM     32  H   UNL     1      21.679   9.589  32.813  1.00  0.00     0.211 HD
ENDBRANCH  26  31
BRANCH  28  33
ATOM     33  O   UNL     1      20.588   6.777  30.684  1.00  0.00    -0.387 OA
ATOM     34  H   UNL     1      21.294   6.853  31.373  1.00  0.00     0.211 HD
ENDBRANCH  28  33
BRANCH  29  35
ATOM     35  C   UNL     1      21.517   8.858  26.773  1.00  0.00     0.191 C 
BRANCH  35  36
ATOM     36  O   UNL     1      22.745   9.393  26.356  1.00  0.00    -0.394 OA
ATOM     37  H   UNL     1      22.529  10.073  25.668  1.00  0.00     0.210 HD
ENDBRANCH  35  36
ENDBRANCH  29  35
BRANCH  30  38
ATOM     38  O   UNL     1      19.233   9.363  28.550  1.00  0.00    -0.387 OA
ATOM     39  H   UNL     1      19.060   9.831  29.409  1.00  0.00     0.211 HD
ENDBRANCH  30  38
ENDBRANCH   1  25
TORSDOF 11
ENDMDL
MODEL 2
REMARK VINA RESULT:    -6.392      4.961     10.391
REMARK INTER + INTRA:         -10.117
REMARK INTER:                  -9.128
REMARK INTRA:                  -0.989
REMARK UNBOUND:                -0.923
REMARK SMILES O=c1cc(-c2ccc(O)c(O)c2)oc2cc(O[C@H]3O[C@H](CO)[C@H](O)[C@@H](O)[C@H]3O)cc(O)c12
REMARK SMILES IDX 17 1 16 2 4 3 3 4 13 5 2 6 14 7 1 8 32 9 15 10 30 11 29 12
REMARK SMILES IDX 5 13 6 14 7 15 8 16 12 17 10 18 9 19 11 21 31 23 18 25 27 26
REMARK SMILES IDX 19 27 25 28 20 29 23 30 28 31 26 33 21 35 22 36 24 38
REMARK H PARENT 9 20 11 22 31 24 28 32 26 34 22 37 24 39
REMARK Flexibility Score: inf
ROOT
ATOM      1  O   UNL     1      28.241   2.263  21.023  1.00  0.00    -0.462 OA
ENDROOT
BRANCH   1   2
ATOM      2  C   UNL     1      28.813   3.489  21.401  1.00  0.00     0.130 A 
ATOM      3  C   UNL     1      29.958   6.355  25.040  1.00  0.00     0.138 A 
ATOM      4  C   UNL     1      30.489   7.334  24.184  1.00  0.00     0.100 A 
ATOM      5  O   UNL     1      29.446   5.241  24.520  1.00  0.00    -0.456 OA
ATOM      6  C   UNL     1      30.484   7.117  22.806  1.00  0.00     0.197 A 
ATOM      7  C   UNL     1      29.419   4.989  23.215  1.00  0.00     0.146 A 
ATOM      8  O   UNL     1      30.961   8.003  22.046  1.00  0.00    -0.289 OA
ATOM      9  C   UNL     1      29.943   5.921  22.292  1.00  0.00     0.107 A 
ATOM     10  C   UNL     1      28.864   3.789  22.764  1.00  0.00     0.094 A 
ATOM     11  C   UNL     1      29.901   5.622  20.911  1.00  0.00     0.134 A 
ATOM     12  C   UNL     1      29.340   4.411  20.476  1.00  0.00     0.093 A 
BRANCH   3  13
ATOM     13  C   UNL     1      29.936   6.530  26.513  1.00  0.00     0.021 A 
ATOM     14  C   UNL     1      31.118   6.342  27.250  1.00  0.00     0.016 A 
ATOM     15  C   UNL     1      31.125   6.508  28.637  1.00  0.00     0.051 A 
ATOM     16  C   UNL     1      29.957   6.873  29.312  1.00  0.00     0.157 A 
ATOM     17  C   UNL     1      28.764   6.912  27.196  1.00  0.00     0.062 A 
ATOM     18  C   UNL     1      28.771   7.080  28.589  1.00  0.00     0.158 A 
BRANCH  16  19
ATOM     19  O   UNL     1      29.995   7.029  30.697  1.00  0.00    -0.504 OA
ATOM     20  H   UNL     1      29.358   7.648  31.186  1.00  0.00     0.293 HD
ENDBRANCH  16  19
BRANCH  18  21
ATOM     21  O   UNL     1      27.605   7.456  29.254  1.00  0.00    -0.504 OA
ATOM     22  H   UNL     1      27.530   8.346  29.734  1.00  0.00     0.293 HD
ENDBRANCH  18  21
ENDBRANCH   3  13
BRANCH  11  23
ATOM     23  O   UNL     1      30.410   6.517  19.967  1.00  0.00    -0.507 OA
ATOM     24  H   UNL     1      29.926   6.710  19.099  1.00  0.00     0.293 HD
ENDBRANCH  11  23
ENDBRANCH   1   2
BRANCH   1  25
ATOM     25  C   UNL     1      27.106   2.071  20.167  1.00  0.00     0.339 C 
ATOM     26  C   UNL     1      25.955   1.308  20.869  1.00  0.00     0.214 C 
ATOM     27  O   UNL     1      27.498   1.412  18.973  1.00  0.00    -0.332 OA
ATOM     28  C   UNL     1      26.283  -0.188  21.076  1.00  0.00     0.180 C 
ATOM     29  C   UNL     1      28.003   0.112  19.234  1.00  0.00     0.179 C 
ATOM     30  C   UNL     1      26.897  -0.809  19.805  1.00  0.00     0.177 C 
BRANCH  26  31
ATOM     31  O   UNL     1      25.634   1.914  22.094  1.00  0.00    -0.384 OA
ATOM     32  H   UNL     1      25.373   1.186  22.715  1.00  0.00     0.211 HD
ENDBRANCH  26  31
BRANCH  28  33
ATOM     33  O   UNL     1      27.094  -0.401  22.208  1.00  0.00    -0.387 OA
ATOM     34  H   UNL     1      27.477   0.467  22.491  1.00  0.00     0.211 HD
ENDBRANCH  28  33
BRANCH  29  35
ATOM     35  C   UNL     1      28.616  -0.458  17.946  1.00  0.00     0.191 C 
BRANCH  35  36
ATOM     36  O   UNL     1      28.451  -1.849  17.890  1.00  0.00    -0.394 OA
ATOM     37  H   UNL     1      27.553  -2.035  18.268  1.00  0.00     0.210 HD
ENDBRANCH  35  36
ENDBRANCH  29  35
BRANCH  30  38
ATOM     38  O   UNL     1      25.874  -0.989  18.856  1.00  0.00    -0.387 OA
ATOM     39  H   UNL     1      25.145  -0.354  19.083  1.00  0.00     0.211 HD
ENDBRANCH  30  38
ENDBRANCH   1  25
TORSDOF 11
ENDMDL
MODEL 3
REMARK VINA RESULT:    -6.324      5.912     12.030
REMARK INTER + INTRA:         -10.020
REMARK INTER:                  -9.426
REMARK INTRA:                  -0.594
REMARK UNBOUND:                -0.923
REMARK SMILES O=c1cc(-c2ccc(O)c(O)c2)oc2cc(O[C@H]3O[C@H](CO)[C@H](O)[C@@H](O)[C@H]3O)cc(O)c12
REMARK SMILES IDX 17 1 16 2 4 3 3 4 13 5 2 6 14 7 1 8 32 9 15 10 30 11 29 12
REMARK SMILES IDX 5 13 6 14 7 15 8 16 12 17 10 18 9 19 11 21 31 23 18 25 27 26
REMARK SMILES IDX 19 27 25 28 20 29 23 30 28 31 26 33 21 35 22 36 24 38
REMARK H PARENT 9 20 11 22 31 24 28 32 26 34 22 37 24 39
REMARK Flexibility Score: inf
ROOT
ATOM      1  O   UNL     1      29.044   2.909  17.230  1.00  0.00    -0.462 OA
ENDROOT
BRANCH   1   2
ATOM      2  C   UNL     1      28.720   2.334  18.470  1.00  0.00     0.130 A 
ATOM      3  C   UNL     1      27.822   3.149  23.084  1.00  0.00     0.138 A 
ATOM      4  C   UNL     1      27.627   1.783  23.352  1.00  0.00     0.100 A 
ATOM      5  O   UNL     1      28.131   3.534  21.848  1.00  0.00    -0.456 OA
ATOM      6  C   UNL     1      27.746   0.857  22.316  1.00  0.00     0.197 A 
ATOM      7  C   UNL     1      28.255   2.689  20.828  1.00  0.00     0.146 A 
ATOM      8  O   UNL     1      27.570  -0.367  22.567  1.00  0.00    -0.289 OA
ATOM      9  C   UNL     1      28.063   1.302  21.017  1.00  0.00     0.107 A 
ATOM     10  C   UNL     1      28.577   3.189  19.564  1.00  0.00     0.094 A 
ATOM     11  C   UNL     1      28.199   0.431  19.912  1.00  0.00     0.134 A 
ATOM     12  C   UNL     1      28.523   0.951  18.650  1.00  0.00     0.093 A 
BRANCH   3  13
ATOM     13  C   UNL     1      27.711   4.179  24.145  1.00  0.00     0.021 A 
ATOM     14  C   UNL     1      28.877   4.769  24.662  1.00  0.00     0.016 A 
ATOM     15  C   UNL     1      28.799   5.747  25.657  1.00  0.00     0.051 A 
ATOM     16  C   UNL     1      27.558   6.161  26.146  1.00  0.00     0.157 A 
ATOM     17  C   UNL     1      26.460   4.610  24.632  1.00  0.00     0.062 A 
ATOM     18  C   UNL     1      26.381   5.593  25.630  1.00  0.00     0.158 A 
BRANCH  16  19
ATOM     19  O   UNL     1      27.511   7.138  27.140  1.00  0.00    -0.504 OA
ATOM     20  H   UNL     1      26.734   7.781  27.226  1.00  0.00     0.293 HD
ENDBRANCH  16  19
BRANCH  18  21
ATOM     21  O   UNL     1      25.139   6.010  26.105  1.00  0.00    -0.504 OA
ATOM     22  H   UNL     1      25.039   6.461  27.007  1.00  0.00     0.293 HD
ENDBRANCH  18  21
ENDBRANCH   3  13
BRANCH  11  23
ATOM     23  O   UNL     1      28.017  -0.945  20.057  1.00  0.00    -0.507 OA
ATOM     24  H   UNL     1      27.600  -1.509  19.327  1.00  0.00     0.293 HD
ENDBRANCH  11  23
ENDBRANCH   1   2
BRANCH   1  25
ATOM     25  C   UNL     1      28.225   2.932  16.052  1.00  0.00     0.339 C 
ATOM     26  C   UNL     1      28.516   4.158  15.150  1.00  0.00     0.214 C 
ATOM     27  O   UNL     1      26.853   2.879  16.408  1.00  0.00    -0.332 OA
ATOM     28  C   UNL     1      27.992   5.476  15.764  1.00  0.00     0.180 C 
ATOM     29  C   UNL     1      26.464   4.013  17.167  1.00  0.00     0.179 C 
ATOM     30  C   UNL     1      26.564   5.307  16.321  1.00  0.00     0.177 C 
BRANCH  26  31
ATOM     31  O   UNL     1      29.889   4.256  14.877  1.00  0.00    -0.384 OA
ATOM     32  H   UNL     1      30.350   3.625  15.487  1.00  0.00     0.211 HD
ENDBRANCH  26  31
BRANCH  28  33
ATOM     33  O   UNL     1      28.873   5.998  16.731  1.00  0.00    -0.387 OA
ATOM     34  H   UNL     1      28.911   6.982  16.625  1.00  0.00     0.211 HD
ENDBRANCH  28  33
BRANCH  29  35
ATOM     35  C   UNL     1      25.045   3.792  17.711  1.00  0.00     0.191 C 
BRANCH  35  36
ATOM     36  O   UNL     1      24.376   5.015  17.866  1.00  0.00    -0.394 OA
ATOM     37  H   UNL     1      24.554   5.533  17.040  1.00  0.00     0.210 HD
ENDBRANCH  35  36
ENDBRANCH  29  35
BRANCH  30  38
ATOM     38  O   UNL     1      25.665   5.253  15.240  1.00  0.00    -0.387 OA
ATOM     39  H   UNL     1      26.184   5.443  14.415  1.00  0.00     0.211 HD
ENDBRANCH  30  38
ENDBRANCH   1  25
TORSDOF 11
ENDMDL
MODEL 4
REMARK VINA RESULT:    -6.265      6.525     12.273
REMARK INTER + INTRA:          -9.935
REMARK INTER:                  -9.153
REMARK INTRA:                  -0.783
REMARK UNBOUND:                -0.923
REMARK SMILES O=c1cc(-c2ccc(O)c(O)c2)oc2cc(O[C@H]3O[C@H](CO)[C@H](O)[C@@H](O)[C@H]3O)cc(O)c12
REMARK SMILES IDX 17 1 16 2 4 3 3 4 13 5 2 6 14 7 1 8 32 9 15 10 30 11 29 12
REMARK SMILES IDX 5 13 6 14 7 15 8 16 12 17 10 18 9 19 11 21 31 23 18 25 27 26
REMARK SMILES IDX 19 27 25 28 20 29 23 30 28 31 26 33 21 35 22 36 24 38
REMARK H PARENT 9 20 11 22 31 24 28 32 26 34 22 37 24 39
REMARK Flexibility Score: inf
ROOT
ATOM      1  O   UNL     1      27.508   2.144  17.627  1.00  0.00    -0.462 OA
ENDROOT
BRANCH   1   2
ATOM      2  C   UNL     1      27.703   1.582  18.899  1.00  0.00     0.130 A 
ATOM      3  C   UNL     1      26.540   1.785  23.522  1.00  0.00     0.138 A 
ATOM      4  C   UNL     1      27.378   0.705  23.845  1.00  0.00     0.100 A 
ATOM      5  O   UNL     1      26.469   2.202  22.260  1.00  0.00    -0.456 OA
ATOM      6  C   UNL     1      28.111   0.079  22.837  1.00  0.00     0.197 A 
ATOM      7  C   UNL     1      27.147   1.638  21.264  1.00  0.00     0.146 A 
ATOM      8  O   UNL     1      28.862  -0.888  23.137  1.00  0.00    -0.289 OA
ATOM      9  C   UNL     1      28.003   0.541  21.509  1.00  0.00     0.107 A 
ATOM     10  C   UNL     1      27.005   2.144  19.971  1.00  0.00     0.094 A 
ATOM     11  C   UNL     1      28.708  -0.037  20.429  1.00  0.00     0.134 A 
ATOM     12  C   UNL     1      28.552   0.484  19.136  1.00  0.00     0.093 A 
BRANCH   3  13
ATOM     13  C   UNL     1      25.738   2.490  24.552  1.00  0.00     0.021 A 
ATOM     14  C   UNL     1      24.958   1.743  25.452  1.00  0.00     0.016 A 
ATOM     15  C   UNL     1      24.199   2.382  26.436  1.00  0.00     0.051 A 
ATOM     16  C   UNL     1      24.212   3.775  26.546  1.00  0.00     0.157 A 
ATOM     17  C   UNL     1      25.758   3.893  24.676  1.00  0.00     0.062 A 
ATOM     18  C   UNL     1      24.998   4.536  25.664  1.00  0.00     0.158 A 
BRANCH  16  19
ATOM     19  O   UNL     1      23.443   4.385  27.536  1.00  0.00    -0.504 OA
ATOM     20  H   UNL     1      23.759   4.454  28.496  1.00  0.00     0.293 HD
ENDBRANCH  16  19
BRANCH  18  21
ATOM     21  O   UNL     1      25.025   5.925  25.775  1.00  0.00    -0.504 OA
ATOM     22  H   UNL     1      25.885   6.427  25.964  1.00  0.00     0.293 HD
ENDBRANCH  18  21
ENDBRANCH   3  13
BRANCH  11  23
ATOM     23  O   UNL     1      29.562  -1.123  20.629  1.00  0.00    -0.507 OA
ATOM     24  H   UNL     1      29.372  -2.033  20.228  1.00  0.00     0.293 HD
ENDBRANCH  11  23
ENDBRANCH   1   2
BRANCH   1  25
ATOM     25  C   UNL     1      26.293   2.142  16.863  1.00  0.00     0.339 C 
ATOM     26  C   UNL     1      26.551   2.198  15.337  1.00  0.00     0.214 C 
ATOM     27  O   UNL     1      25.454   3.209  17.275  1.00  0.00    -0.332 OA
ATOM     28  C   UNL     1      27.055   3.586  14.877  1.00  0.00     0.180 C 
ATOM     29  C   UNL     1      26.054   4.472  17.035  1.00  0.00     0.179 C 
ATOM     30  C   UNL     1      26.231   4.722  15.517  1.00  0.00     0.177 C 
BRANCH  26  31
ATOM     31  O   UNL     1      27.454   1.196  14.950  1.00  0.00    -0.384 OA
ATOM     32  H   UNL     1      27.984   1.562  14.195  1.00  0.00     0.211 HD
ENDBRANCH  26  31
BRANCH  28  33
ATOM     33  O   UNL     1      28.436   3.749  15.100  1.00  0.00    -0.387 OA
ATOM     34  H   UNL     1      28.809   4.310  14.375  1.00  0.00     0.211 HD
ENDBRANCH  28  33
BRANCH  29  35
ATOM     35  C   UNL     1      25.209   5.567  17.702  1.00  0.00     0.191 C 
BRANCH  35  36
ATOM     36  O   UNL     1      25.898   6.788  17.714  1.00  0.00    -0.394 OA
ATOM     37  H   UNL     1      25.203   7.496  17.720  1.00  0.00     0.210 HD
ENDBRANCH  35  36
ENDBRANCH  29  35
BRANCH  30  38
ATOM     38  O   UNL     1      24.976   4.778  14.882  1.00  0.00    -0.387 OA
ATOM     39  H   UNL     1      25.118   4.543  13.928  1.00  0.00     0.211 HD
ENDBRANCH  30  38
ENDBRANCH   1  25
TORSDOF 11
ENDMDL
MODEL 5
REMARK VINA RESULT:    -6.153      1.033      2.366
REMARK INTER + INTRA:          -9.773
REMARK INTER:                  -8.796
REMARK INTRA:                  -0.977
REMARK UNBOUND:                -0.923
REMARK SMILES O=c1cc(-c2ccc(O)c(O)c2)oc2cc(O[C@H]3O[C@H](CO)[C@H](O)[C@@H](O)[C@H]3O)cc(O)c12
REMARK SMILES IDX 17 1 16 2 4 3 3 4 13 5 2 6 14 7 1 8 32 9 15 10 30 11 29 12
REMARK SMILES IDX 5 13 6 14 7 15 8 16 12 17 10 18 9 19 11 21 31 23 18 25 27 26
REMARK SMILES IDX 19 27 25 28 20 29 23 30 28 31 26 33 21 35 22 36 24 38
REMARK H PARENT 9 20 11 22 31 24 28 32 26 34 22 37 24 39
REMARK Flexibility Score: inf
ROOT
ATOM      1  O   UNL     1      23.037   8.131  30.376  1.00  0.00    -0.462 OA
ENDROOT
BRANCH   1   2
ATOM      2  C   UNL     1      24.425   8.337  30.299  1.00  0.00     0.130 A 
ATOM      3  C   UNL     1      28.432   7.369  27.896  1.00  0.00     0.138 A 
ATOM      4  C   UNL     1      29.217   8.137  28.772  1.00  0.00     0.100 A 
ATOM      5  O   UNL     1      27.121   7.271  28.111  1.00  0.00    -0.456 OA
ATOM      6  C   UNL     1      28.609   8.795  29.841  1.00  0.00     0.197 A 
ATOM      7  C   UNL     1      26.496   7.878  29.115  1.00  0.00     0.146 A 
ATOM      8  O   UNL     1      29.323   9.481  30.623  1.00  0.00    -0.289 OA
ATOM      9  C   UNL     1      27.217   8.677  30.031  1.00  0.00     0.107 A 
ATOM     10  C   UNL     1      25.116   7.718  29.255  1.00  0.00     0.094 A 
ATOM     11  C   UNL     1      26.524   9.311  31.086  1.00  0.00     0.134 A 
ATOM     12  C   UNL     1      25.136   9.140  31.212  1.00  0.00     0.093 A 
BRANCH   3  13
ATOM     13  C   UNL     1      29.022   6.647  26.743  1.00  0.00     0.021 A 
ATOM     14  C   UNL     1      30.414   6.675  26.549  1.00  0.00     0.016 A 
ATOM     15  C   UNL     1      30.996   5.997  25.475  1.00  0.00     0.051 A 
ATOM     16  C   UNL     1      30.202   5.272  24.582  1.00  0.00     0.157 A 
ATOM     17  C   UNL     1      28.227   5.903  25.848  1.00  0.00     0.062 A 
ATOM     18  C   UNL     1      28.811   5.221  24.770  1.00  0.00     0.158 A 
BRANCH  16  19
ATOM     19  O   UNL     1      30.811   4.607  23.518  1.00  0.00    -0.504 OA
ATOM     20  H   UNL     1      31.182   3.669  23.612  1.00  0.00     0.293 HD
ENDBRANCH  16  19
BRANCH  18  21
ATOM     21  O   UNL     1      28.014   4.490  23.890  1.00  0.00    -0.504 OA
ATOM     22  H   UNL     1      27.284   4.931  23.343  1.00  0.00     0.293 HD
ENDBRANCH  18  21
ENDBRANCH   3  13
BRANCH  11  23
ATOM     23  O   UNL     1      27.199  10.110  32.011  1.00  0.00    -0.507 OA
ATOM     24  H   UNL     1      28.210  10.139  32.054  1.00  0.00     0.293 HD
ENDBRANCH  11  23
ENDBRANCH   1   2
BRANCH   1  25
ATOM     25  C   UNL     1      22.233   7.351  29.480  1.00  0.00     0.339 C 
ATOM     26  C   UNL     1      21.407   8.228  28.507  1.00  0.00     0.214 C 
ATOM     27  O   UNL     1      21.392   6.475  30.213  1.00  0.00    -0.332 OA
ATOM     28  C   UNL     1      20.240   8.952  29.216  1.00  0.00     0.180 C 
ATOM     29  C   UNL     1      20.474   7.188  31.026  1.00  0.00     0.179 C 
ATOM     30  C   UNL     1      19.479   7.999  30.160  1.00  0.00     0.177 C 
BRANCH  26  31
ATOM     31  O   UNL     1      22.233   9.154  27.851  1.00  0.00    -0.384 OA
ATOM     32  H   UNL     1      22.172   8.958  26.881  1.00  0.00     0.211 HD
ENDBRANCH  26  31
BRANCH  28  33
ATOM     33  O   UNL     1      20.666  10.119  29.880  1.00  0.00    -0.387 OA
ATOM     34  H   UNL     1      21.642  10.218  29.750  1.00  0.00     0.211 HD
ENDBRANCH  28  33
BRANCH  29  35
ATOM     35  C   UNL     1      19.753   6.202  31.957  1.00  0.00     0.191 C 
BRANCH  35  36
ATOM     36  O   UNL     1      18.370   6.436  31.954  1.00  0.00    -0.394 OA
ATOM     37  H   UNL     1      18.113   6.578  32.901  1.00  0.00     0.210 HD
ENDBRANCH  35  36
ENDBRANCH  29  35
BRANCH  30  38
ATOM     38  O   UNL     1      18.691   7.131  29.380  1.00  0.00    -0.387 OA
ATOM     39  H   UNL     1      17.744   7.403  29.502  1.00  0.00     0.211 HD
ENDBRANCH  30  38
ENDBRANCH   1  25
TORSDOF 11
ENDMDL
MODEL 6
REMARK VINA RESULT:    -6.085      1.581      2.719
REMARK INTER + INTRA:          -9.675
REMARK INTER:                  -8.626
REMARK INTRA:                  -1.049
REMARK UNBOUND:                -0.923
REMARK SMILES O=c1cc(-c2ccc(O)c(O)c2)oc2cc(O[C@H]3O[C@H](CO)[C@H](O)[C@@H](O)[C@H]3O)cc(O)c12
REMARK SMILES IDX 17 1 16 2 4 3 3 4 13 5 2 6 14 7 1 8 32 9 15 10 30 11 29 12
REMARK SMILES IDX 5 13 6 14 7 15 8 16 12 17 10 18 9 19 11 21 31 23 18 25 27 26
REMARK SMILES IDX 19 27 25 28 20 29 23 30 28 31 26 33 21 35 22 36 24 38
REMARK H PARENT 9 20 11 22 31 24 28 32 26 34 22 37 24 39
REMARK Flexibility Score: inf
ROOT
ATOM      1  O   UNL     1      24.065   8.759  31.076  1.00  0.00    -0.462 OA
ENDROOT
BRANCH   1   2
ATOM      2  C   UNL     1      25.393   8.732  30.618  1.00  0.00     0.130 A 
ATOM      3  C   UNL     1      28.406   6.989  27.354  1.00  0.00     0.138 A 
ATOM      4  C   UNL     1      29.502   7.668  27.912  1.00  0.00     0.100 A 
ATOM      5  O   UNL     1      27.205   7.117  27.914  1.00  0.00    -0.456 OA
ATOM      6  C   UNL     1      29.311   8.476  29.033  1.00  0.00     0.197 A 
ATOM      7  C   UNL     1      26.973   7.875  28.982  1.00  0.00     0.146 A 
ATOM      8  O   UNL     1      30.301   9.081  29.527  1.00  0.00    -0.289 OA
ATOM      9  C   UNL     1      28.023   8.597  29.592  1.00  0.00     0.107 A 
ATOM     10  C   UNL     1      25.676   7.950  29.495  1.00  0.00     0.094 A 
ATOM     11  C   UNL     1      27.743   9.395  30.724  1.00  0.00     0.134 A 
ATOM     12  C   UNL     1      26.434   9.459  31.227  1.00  0.00     0.093 A 
BRANCH   3  13
ATOM     13  C   UNL     1      28.549   6.116  26.164  1.00  0.00     0.021 A 
ATOM     14  C   UNL     1      29.777   6.072  25.481  1.00  0.00     0.016 A 
ATOM     15  C   UNL     1      29.939   5.253  24.362  1.00  0.00     0.051 A 
ATOM     16  C   UNL     1      28.885   4.455  23.909  1.00  0.00     0.157 A 
ATOM     17  C   UNL     1      27.493   5.299  25.712  1.00  0.00     0.062 A 
ATOM     18  C   UNL     1      27.656   4.475  24.589  1.00  0.00     0.158 A 
BRANCH  16  19
ATOM     19  O   UNL     1      29.076   3.649  22.788  1.00  0.00    -0.504 OA
ATOM     20  H   UNL     1      29.967   3.597  22.309  1.00  0.00     0.293 HD
ENDBRANCH  16  19
BRANCH  18  21
ATOM     21  O   UNL     1      26.603   3.673  24.150  1.00  0.00    -0.504 OA
ATOM     22  H   UNL     1      25.648   3.841  24.445  1.00  0.00     0.293 HD
ENDBRANCH  18  21
ENDBRANCH   3  13
BRANCH  11  23
ATOM     23  O   UNL     1      28.752  10.125  31.355  1.00  0.00    -0.507 OA
ATOM     24  H   UNL     1      28.945  10.025  32.344  1.00  0.00     0.293 HD
ENDBRANCH  11  23
ENDBRANCH   1   2
BRANCH   1  25
ATOM     25  C   UNL     1      22.949   8.049  30.520  1.00  0.00     0.339 C 
ATOM     26  C   UNL     1      21.610   8.803  30.713  1.00  0.00     0.214 C 
ATOM     27  O   UNL     1      22.878   6.741  31.067  1.00  0.00    -0.332 OA
ATOM     28  C   UNL     1      21.129   8.779  32.182  1.00  0.00     0.180 C 
ATOM     29  C   UNL     1      22.654   6.770  32.467  1.00  0.00     0.179 C 
ATOM     30  C   UNL     1      21.264   7.370  32.794  1.00  0.00     0.177 C 
BRANCH  26  31
ATOM     31  O   UNL     1      21.716  10.125  30.253  1.00  0.00    -0.384 OA
ATOM     32  H   UNL     1      20.865  10.579  30.485  1.00  0.00     0.211 HD
ENDBRANCH  26  31
BRANCH  28  33
ATOM     33  O   UNL     1      21.774   9.755  32.967  1.00  0.00    -0.387 OA
ATOM     34  H   UNL     1      21.100  10.416  33.266  1.00  0.00     0.211 HD
ENDBRANCH  28  33
BRANCH  29  35
ATOM     35  C   UNL     1      22.813   5.350  33.032  1.00  0.00     0.191 C 
BRANCH  35  36
ATOM     36  O   UNL     1      22.247   4.404  32.165  1.00  0.00    -0.394 OA
ATOM     37  H   UNL     1      22.569   3.519  32.475  1.00  0.00     0.210 HD
ENDBRANCH  35  36
ENDBRANCH  29  35
BRANCH  30  38
ATOM     38  O   UNL     1      20.245   6.554  32.267  1.00  0.00    -0.387 OA
ATOM     39  H   UNL     1      19.919   5.975  33.006  1.00  0.00     0.211 HD
ENDBRANCH  30  38
ENDBRANCH   1  25
TORSDOF 11
ENDMDL
MODEL 7
REMARK VINA RESULT:    -5.971      5.709     11.840
REMARK INTER + INTRA:          -9.512
REMARK INTER:                  -8.480
REMARK INTRA:                  -1.031
REMARK UNBOUND:                -0.923
REMARK SMILES O=c1cc(-c2ccc(O)c(O)c2)oc2cc(O[C@H]3O[C@H](CO)[C@H](O)[C@@H](O)[C@H]3O)cc(O)c12
REMARK SMILES IDX 17 1 16 2 4 3 3 4 13 5 2 6 14 7 1 8 32 9 15 10 30 11 29 12
REMARK SMILES IDX 5 13 6 14 7 15 8 16 12 17 10 18 9 19 11 21 31 23 18 25 27 26
REMARK SMILES IDX 19 27 25 28 20 29 23 30 28 31 26 33 21 35 22 36 24 38
REMARK H PARENT 9 20 11 22 31 24 28 32 26 34 22 37 24 39
REMARK Flexibility Score: inf
ROOT
ATOM      1  O   UNL     1      28.711   1.118  19.098  1.00  0.00    -0.462 OA
ENDROOT
BRANCH   1   2
ATOM      2  C   UNL     1      29.152   2.392  19.493  1.00  0.00     0.130 A 
ATOM      3  C   UNL     1      29.252   5.621  23.005  1.00  0.00     0.138 A 
ATOM      4  C   UNL     1      29.989   6.532  22.231  1.00  0.00     0.100 A 
ATOM      5  O   UNL     1      28.906   4.447  22.479  1.00  0.00    -0.456 OA
ATOM      6  C   UNL     1      30.359   6.187  20.931  1.00  0.00     0.197 A 
ATOM      7  C   UNL     1      29.235   4.073  21.246  1.00  0.00     0.146 A 
ATOM      8  O   UNL     1      31.019   7.013  20.243  1.00  0.00    -0.289 OA
ATOM      9  C   UNL     1      29.985   4.932  20.411  1.00  0.00     0.107 A 
ATOM     10  C   UNL     1      28.830   2.819  20.783  1.00  0.00     0.094 A 
ATOM     11  C   UNL     1      30.320   4.504  19.106  1.00  0.00     0.134 A 
ATOM     12  C   UNL     1      29.905   3.240  18.658  1.00  0.00     0.093 A 
BRANCH   3  13
ATOM     13  C   UNL     1      28.830   5.932  24.392  1.00  0.00     0.021 A 
ATOM     14  C   UNL     1      29.804   6.234  25.360  1.00  0.00     0.016 A 
ATOM     15  C   UNL     1      29.432   6.538  26.672  1.00  0.00     0.051 A 
ATOM     16  C   UNL     1      28.084   6.556  27.040  1.00  0.00     0.157 A 
ATOM     17  C   UNL     1      27.471   5.965  24.765  1.00  0.00     0.062 A 
ATOM     18  C   UNL     1      27.097   6.272  26.081  1.00  0.00     0.158 A 
BRANCH  16  19
ATOM     19  O   UNL     1      27.744   6.860  28.357  1.00  0.00    -0.504 OA
ATOM     20  H   UNL     1      27.572   7.811  28.662  1.00  0.00     0.293 HD
ENDBRANCH  16  19
BRANCH  18  21
ATOM     21  O   UNL     1      25.750   6.299  26.438  1.00  0.00    -0.504 OA
ATOM     22  H   UNL     1      25.060   6.779  25.873  1.00  0.00     0.293 HD
ENDBRANCH  18  21
ENDBRANCH   3  13
BRANCH  11  23
ATOM     23  O   UNL     1      31.060   5.321  18.251  1.00  0.00    -0.507 OA
ATOM     24  H   UNL     1      31.843   4.965  17.716  1.00  0.00     0.293 HD
ENDBRANCH  11  23
ENDBRANCH   1   2
BRANCH   1  25
ATOM     25  C   UNL     1      27.376   0.601  19.199  1.00  0.00     0.339 C 
ATOM     26  C   UNL     1      27.337  -0.948  19.185  1.00  0.00     0.214 C 
ATOM     27  O   UNL     1      26.564   1.138  18.167  1.00  0.00    -0.332 OA
ATOM     28  C   UNL     1      27.655  -1.531  17.789  1.00  0.00     0.180 C 
ATOM     29  C   UNL     1      27.026   0.755  16.882  1.00  0.00     0.179 C 
ATOM     30  C   UNL     1      26.896  -0.775  16.679  1.00  0.00     0.177 C 
BRANCH  26  31
ATOM     31  O   UNL     1      28.213  -1.474  20.147  1.00  0.00    -0.384 OA
ATOM     32  H   UNL     1      28.438  -0.733  20.767  1.00  0.00     0.211 HD
ENDBRANCH  26  31
BRANCH  28  33
ATOM     33  O   UNL     1      29.040  -1.580  17.538  1.00  0.00    -0.387 OA
ATOM     34  H   UNL     1      29.449  -2.243  18.149  1.00  0.00     0.211 HD
ENDBRANCH  28  33
BRANCH  29  35
ATOM     35  C   UNL     1      26.254   1.543  15.814  1.00  0.00     0.191 C 
BRANCH  35  36
ATOM     36  O   UNL     1      24.938   1.788  16.231  1.00  0.00    -0.394 OA
ATOM     37  H   UNL     1      24.401   1.016  15.915  1.00  0.00     0.210 HD
ENDBRANCH  35  36
ENDBRANCH  29  35
BRANCH  30  38
ATOM     38  O   UNL     1      25.543  -1.159  16.720  1.00  0.00    -0.387 OA
ATOM     39  H   UNL     1      25.045  -0.435  17.182  1.00  0.00     0.211 HD
ENDBRANCH  30  38
ENDBRANCH   1  25
TORSDOF 11
ENDMDL
MODEL 8
REMARK VINA RESULT:    -5.904      4.931     10.516
REMARK INTER + INTRA:          -9.415
REMARK INTER:                  -8.442
REMARK INTRA:                  -0.974
REMARK UNBOUND:                -0.923
REMARK SMILES O=c1cc(-c2ccc(O)c(O)c2)oc2cc(O[C@H]3O[C@H](CO)[C@H](O)[C@@H](O)[C@H]3O)cc(O)c12
REMARK SMILES IDX 17 1 16 2 4 3 3 4 13 5 2 6 14 7 1 8 32 9 15 10 30 11 29 12
REMARK SMILES IDX 5 13 6 14 7 15 8 16 12 17 10 18 9 19 11 21 31 23 18 25 27 26
REMARK SMILES IDX 19 27 25 28 20 29 23 30 28 31 26 33 21 35 22 36 24 38
REMARK H PARENT 9 20 11 22 31 24 28 32 26 34 22 37 24 39
REMARK Flexibility Score: inf
ROOT
ATOM      1  O   UNL     1      28.121   2.496  21.426  1.00  0.00    -0.462 OA
ENDROOT
BRANCH   1   2
ATOM      2  C   UNL     1      28.709   3.710  21.819  1.00  0.00     0.130 A 
ATOM      3  C   UNL     1      29.929   6.498  25.493  1.00  0.00     0.138 A 
ATOM      4  C   UNL     1      30.458   7.488  24.648  1.00  0.00     0.100 A 
ATOM      5  O   UNL     1      29.399   5.399  24.960  1.00  0.00    -0.456 OA
ATOM      6  C   UNL     1      30.433   7.296  23.267  1.00  0.00     0.197 A 
ATOM      7  C   UNL     1      29.353   5.171  23.651  1.00  0.00     0.146 A 
ATOM      8  O   UNL     1      30.909   8.191  22.516  1.00  0.00    -0.289 OA
ATOM      9  C   UNL     1      29.874   6.115  22.738  1.00  0.00     0.107 A 
ATOM     10  C   UNL     1      28.780   3.985  23.186  1.00  0.00     0.094 A 
ATOM     11  C   UNL     1      29.812   5.841  21.353  1.00  0.00     0.134 A 
ATOM     12  C   UNL     1      29.234   4.644  20.904  1.00  0.00     0.093 A 
BRANCH   3  13
ATOM     13  C   UNL     1      29.926   6.647  26.969  1.00  0.00     0.021 A 
ATOM     14  C   UNL     1      31.083   6.322  27.699  1.00  0.00     0.016 A 
ATOM     15  C   UNL     1      31.109   6.461  29.089  1.00  0.00     0.051 A 
ATOM     16  C   UNL     1      29.987   6.934  29.775  1.00  0.00     0.157 A 
ATOM     17  C   UNL     1      28.802   7.137  27.664  1.00  0.00     0.062 A 
ATOM     18  C   UNL     1      28.828   7.278  29.059  1.00  0.00     0.158 A 
BRANCH  16  19
ATOM     19  O   UNL     1      30.043   7.059  31.162  1.00  0.00    -0.504 OA
ATOM     20  H   UNL     1      29.765   6.307  31.781  1.00  0.00     0.293 HD
ENDBRANCH  16  19
BRANCH  18  21
ATOM     21  O   UNL     1      27.709   7.761  29.735  1.00  0.00    -0.504 OA
ATOM     22  H   UNL     1      26.771   7.627  29.375  1.00  0.00     0.293 HD
ENDBRANCH  18  21
ENDBRANCH   3  13
BRANCH  11  23
ATOM     23  O   UNL     1      30.317   6.747  20.419  1.00  0.00    -0.507 OA
ATOM     24  H   UNL     1      30.312   6.550  19.426  1.00  0.00     0.293 HD
ENDBRANCH  11  23
ENDBRANCH   1   2
BRANCH   1  25
ATOM     25  C   UNL     1      28.299   1.820  20.174  1.00  0.00     0.339 C 
ATOM     26  C   UNL     1      27.091   0.923  19.806  1.00  0.00     0.214 C 
ATOM     27  O   UNL     1      29.503   1.069  20.189  1.00  0.00    -0.332 OA
ATOM     28  C   UNL     1      27.010  -0.344  20.688  1.00  0.00     0.180 C 
ATOM     29  C   UNL     1      29.471   0.048  21.174  1.00  0.00     0.179 C 
ATOM     30  C   UNL     1      28.392  -1.012  20.839  1.00  0.00     0.177 C 
BRANCH  26  31
ATOM     31  O   UNL     1      25.893   1.650  19.881  1.00  0.00    -0.384 OA
ATOM     32  H   UNL     1      26.138   2.585  20.102  1.00  0.00     0.211 HD
ENDBRANCH  26  31
BRANCH  28  33
ATOM     33  O   UNL     1      26.415  -0.082  21.938  1.00  0.00    -0.387 OA
ATOM     34  H   UNL     1      26.358  -0.931  22.445  1.00  0.00     0.211 HD
ENDBRANCH  28  33
BRANCH  29  35
ATOM     35  C   UNL     1      30.869  -0.576  21.298  1.00  0.00     0.191 C 
BRANCH  35  36
ATOM     36  O   UNL     1      30.778  -1.941  21.606  1.00  0.00    -0.394 OA
ATOM     37  H   UNL     1      31.065  -2.427  20.791  1.00  0.00     0.210 HD
ENDBRANCH  35  36
ENDBRANCH  29  35
BRANCH  30  38
ATOM     38  O   UNL     1      28.708  -1.665  19.633  1.00  0.00    -0.387 OA
ATOM     39  H   UNL     1      29.553  -1.268  19.295  1.00  0.00     0.211 HD
ENDBRANCH  30  38
ENDBRANCH   1  25
TORSDOF 11
ENDMDL
MODEL 9
REMARK VINA RESULT:    -4.898      5.712     12.401
REMARK INTER + INTRA:          -7.968
REMARK INTER:                  -6.993
REMARK INTRA:                  -0.975
REMARK UNBOUND:                -0.923
REMARK SMILES O=c1cc(-c2ccc(O)c(O)c2)oc2cc(O[C@H]3O[C@H](CO)[C@H](O)[C@@H](O)[C@H]3O)cc(O)c12
REMARK SMILES IDX 17 1 16 2 4 3 3 4 13 5 2 6 14 7 1 8 32 9 15 10 30 11 29 12
REMARK SMILES IDX 5 13 6 14 7 15 8 16 12 17 10 18 9 19 11 21 31 23 18 25 27 26
REMARK SMILES IDX 19 27 25 28 20 29 23 30 28 31 26 33 21 35 22 36 24 38
REMARK H PARENT 9 20 11 22 31 24 28 32 26 34 22 37 24 39
REMARK Flexibility Score: inf
ROOT
ATOM      1  O   UNL     1      29.194   0.294  19.411  1.00  0.00    -0.462 OA
ENDROOT
BRANCH   1   2
ATOM      2  C   UNL     1      29.218   1.415  20.257  1.00  0.00     0.130 A 
ATOM      3  C   UNL     1      27.142   3.622  23.942  1.00  0.00     0.138 A 
ATOM      4  C   UNL     1      28.054   4.690  23.897  1.00  0.00     0.100 A 
ATOM      5  O   UNL     1      27.253   2.631  23.060  1.00  0.00    -0.456 OA
ATOM      6  C   UNL     1      29.067   4.687  22.940  1.00  0.00     0.197 A 
ATOM      7  C   UNL     1      28.202   2.583  22.130  1.00  0.00     0.146 A 
ATOM      8  O   UNL     1      29.880   5.651  22.906  1.00  0.00    -0.289 OA
ATOM      9  C   UNL     1      29.161   3.616  22.028  1.00  0.00     0.107 A 
ATOM     10  C   UNL     1      28.240   1.499  21.250  1.00  0.00     0.094 A 
ATOM     11  C   UNL     1      30.158   3.534  21.030  1.00  0.00     0.134 A 
ATOM     12  C   UNL     1      30.182   2.437  20.155  1.00  0.00     0.093 A 
BRANCH   3  13
ATOM     13  C   UNL     1      26.043   3.571  24.938  1.00  0.00     0.021 A 
ATOM     14  C   UNL     1      25.461   4.769  25.387  1.00  0.00     0.016 A 
ATOM     15  C   UNL     1      24.420   4.749  26.318  1.00  0.00     0.051 A 
ATOM     16  C   UNL     1      23.934   3.534  26.810  1.00  0.00     0.157 A 
ATOM     17  C   UNL     1      25.541   2.349  25.426  1.00  0.00     0.062 A 
ATOM     18  C   UNL     1      24.494   2.327  26.360  1.00  0.00     0.158 A 
BRANCH  16  19
ATOM     19  O   UNL     1      22.896   3.545  27.740  1.00  0.00    -0.504 OA
ATOM     20  H   UNL     1      21.961   3.852  27.498  1.00  0.00     0.293 HD
ENDBRANCH  16  19
BRANCH  18  21
ATOM     21  O   UNL     1      24.007   1.112  26.837  1.00  0.00    -0.504 OA
ATOM     22  H   UNL     1      23.765   0.982  27.813  1.00  0.00     0.293 HD
ENDBRANCH  18  21
ENDBRANCH   3  13
BRANCH  11  23
ATOM     23  O   UNL     1      31.125   4.533  20.898  1.00  0.00    -0.507 OA
ATOM     24  H   UNL     1      31.972   4.388  20.364  1.00  0.00     0.293 HD
ENDBRANCH  11  23
ENDBRANCH   1   2
BRANCH   1  25
ATOM     25  C   UNL     1      30.248  -0.660  19.216  1.00  0.00     0.339 C 
ATOM     26  C   UNL     1      29.822  -1.839  18.307  1.00  0.00     0.214 C 
ATOM     27  O   UNL     1      30.720  -1.130  20.469  1.00  0.00    -0.332 OA
ATOM     28  C   UNL     1      28.835  -2.797  19.012  1.00  0.00     0.180 C 
ATOM     29  C   UNL     1      29.708  -1.820  21.185  1.00  0.00     0.179 C 
ATOM     30  C   UNL     1      29.293  -3.118  20.449  1.00  0.00     0.177 C 
BRANCH  26  31
ATOM     31  O   UNL     1      29.271  -1.365  17.106  1.00  0.00    -0.384 OA
ATOM     32  H   UNL     1      29.296  -2.117  16.461  1.00  0.00     0.211 HD
ENDBRANCH  26  31
BRANCH  28  33
ATOM     33  O   UNL     1      27.512  -2.314  18.979  1.00  0.00    -0.387 OA
ATOM     34  H   UNL     1      27.060  -2.571  19.822  1.00  0.00     0.211 HD
ENDBRANCH  28  33
BRANCH  29  35
ATOM     35  C   UNL     1      30.204  -2.103  22.611  1.00  0.00     0.191 C 
BRANCH  35  36
ATOM     36  O   UNL     1      29.760  -3.358  23.052  1.00  0.00    -0.394 OA
ATOM     37  H   UNL     1      28.887  -3.512  22.608  1.00  0.00     0.210 HD
ENDBRANCH  35  36
ENDBRANCH  29  35
BRANCH  30  38
ATOM     38  O   UNL     1      30.380  -4.010  20.384  1.00  0.00    -0.387 OA
ATOM     39  H   UNL     1      30.832  -3.989  21.268  1.00  0.00     0.211 HD
ENDBRANCH  30  38
ENDBRANCH   1  25
TORSDOF 11
ENDMDL
