MODEL 1
REMARK VINA RESULT:    -5.275      0.000      0.000
REMARK INTER + INTRA:         -11.486
REMARK INTER:                  -9.592
REMARK INTRA:                  -1.894
REMARK UNBOUND:                -1.894
REMARK SMILES CCCCCCCCCCCCCCCC(=O)[O-]
REMARK SMILES IDX 9 1 10 2 11 3 12 4 13 5 14 6 15 7 16 8 17 9 18 10 8 11 7 12
REMARK SMILES IDX 6 13 5 14 4 15 3 16 2 17 1 18
REMARK H PARENT
REMARK Flexibility Score: inf
ROOT
ATOM      1  C   UNL     1      13.703  22.653  -7.864  1.00  0.00     0.000 C 
ENDROOT
BRANCH   1   2
ATOM      2  C   UNL     1      12.491  22.084  -7.104  1.00  0.00     0.000 C 
BRANCH   2   3
ATOM      3  C   UNL     1      11.783  20.901  -7.798  1.00  0.00     0.000 C 
BRANCH   3   4
ATOM      4  C   UNL     1      10.307  20.702  -7.402  1.00  0.00     0.000 C 
BRANCH   4   5
ATOM      5  C   UNL     1       9.842  21.520  -6.181  1.00  0.00     0.000 C 
BRANCH   5   6
ATOM      6  C   UNL     1       8.744  22.558  -6.476  1.00  0.00     0.006 C 
BRANCH   6   7
ATOM      7  C   UNL     1       7.824  22.810  -5.275  1.00  0.00     0.053 C 
BRANCH   7   8
ATOM      8  C   UNL     1       6.677  23.685  -5.671  1.00  0.00     0.041 C 
ATOM      9  O   UNL     1       5.581  23.172  -6.024  1.00  0.00    -0.550 OA
ATOM     10  O   UNL     1       6.831  25.064  -5.697  1.00  0.00    -0.550 OA
ENDBRANCH   7   8
ENDBRANCH   6   7
ENDBRANCH   5   6
ENDBRANCH   4   5
ENDBRANCH   3   4
ENDBRANCH   2   3
ENDBRANCH   1   2
BRANCH   1  11
ATOM     11  C   UNL     1      13.513  24.119  -8.278  1.00  0.00     0.000 C 
BRANCH  11  12
ATOM     12  C   UNL     1      12.042  24.409  -8.610  1.00  0.00    -0.000 C 
BRANCH  12  13
ATOM     13  C   UNL     1      11.739  24.286 -10.112  1.00  0.00    -0.000 C 
BRANCH  13  14
ATOM     14  C   UNL     1      10.761  23.140 -10.427  1.00  0.00    -0.000 C 
BRANCH  14  15
ATOM     15  C   UNL     1       9.390  23.335  -9.762  1.00  0.00    -0.000 C 
BRANCH  15  16
ATOM     16  C   UNL     1       8.423  22.176 -10.051  1.00  0.00    -0.000 C 
BRANCH  16  17
ATOM     17  C   UNL     1       7.001  22.696 -10.294  1.00  0.00    -0.003 C 
ATOM     18  C   UNL     1       6.635  23.789  -9.295  1.00  0.00     0.004 C 
ENDBRANCH  16  17
ENDBRANCH  15  16
ENDBRANCH  14  15
ENDBRANCH  13  14
ENDBRANCH  12  13
ENDBRANCH  11  12
ENDBRANCH   1  11
TORSDOF 14
ENDMDL
MODEL 2
REMARK VINA RESULT:    -5.254      2.969      5.157
REMARK INTER + INTRA:         -11.448
REMARK INTER:                  -9.616
REMARK INTRA:                  -1.832
REMARK UNBOUND:                -1.894
REMARK SMILES CCCCCCCCCCCCCCCC(=O)[O-]
REMARK SMILES IDX 9 1 10 2 11 3 12 4 13 5 14 6 15 7 16 8 17 9 18 10 8 11 7 12
REMARK SMILES IDX 6 13 5 14 4 15 3 16 2 17 1 18
REMARK H PARENT
REMARK Flexibility Score: inf
ROOT
ATOM      1  C   UNL     1       8.729  21.646  -5.898  1.00  0.00     0.000 C 
ENDROOT
BRANCH   1   2
ATOM      2  C   UNL     1      10.000  22.053  -6.665  1.00  0.00     0.000 C 
BRANCH   2   3
ATOM      3  C   UNL     1      10.241  21.286  -7.982  1.00  0.00     0.000 C 
BRANCH   3   4
ATOM      4  C   UNL     1      10.133  22.138  -9.262  1.00  0.00     0.000 C 
BRANCH   4   5
ATOM      5  C   UNL     1      10.537  23.617  -9.098  1.00  0.00     0.000 C 
BRANCH   5   6
ATOM      6  C   UNL     1      11.999  23.934  -9.458  1.00  0.00     0.006 C 
BRANCH   6   7
ATOM      7  C   UNL     1      12.816  24.427  -8.257  1.00  0.00     0.053 C 
BRANCH   7   8
ATOM      8  C   UNL     1      13.862  23.423  -7.890  1.00  0.00     0.041 C 
ATOM      9  O   UNL     1      15.043  23.795  -7.654  1.00  0.00    -0.550 OA
ATOM     10  O   UNL     1      13.547  22.071  -7.855  1.00  0.00    -0.550 OA
ENDBRANCH   7   8
ENDBRANCH   6   7
ENDBRANCH   5   6
ENDBRANCH   4   5
ENDBRANCH   3   4
ENDBRANCH   2   3
ENDBRANCH   1   2
BRANCH   1  11
ATOM     11  C   UNL     1       7.989  22.845  -5.289  1.00  0.00     0.000 C 
BRANCH  11  12
ATOM     12  C   UNL     1       6.824  23.286  -6.188  1.00  0.00    -0.000 C 
BRANCH  12  13
ATOM     13  C   UNL     1       7.006  24.710  -6.736  1.00  0.00    -0.000 C 
BRANCH  13  14
ATOM     14  C   UNL     1       7.104  24.745  -8.272  1.00  0.00    -0.000 C 
BRANCH  14  15
ATOM     15  C   UNL     1       6.949  23.354  -8.905  1.00  0.00    -0.000 C 
BRANCH  15  16
ATOM     16  C   UNL     1       6.132  23.385 -10.207  1.00  0.00    -0.000 C 
BRANCH  16  17
ATOM     17  C   UNL     1       4.982  22.373 -10.157  1.00  0.00    -0.003 C 
ATOM     18  C   UNL     1       4.122  22.576  -8.914  1.00  0.00     0.004 C 
ENDBRANCH  16  17
ENDBRANCH  15  16
ENDBRANCH  14  15
ENDBRANCH  13  14
ENDBRANCH  12  13
ENDBRANCH  11  12
ENDBRANCH   1  11
TORSDOF 14
ENDMDL
MODEL 3
REMARK VINA RESULT:    -5.159      1.854      4.703
REMARK INTER + INTRA:         -11.276
REMARK INTER:                  -9.253
REMARK INTRA:                  -2.024
REMARK UNBOUND:                -1.894
REMARK SMILES CCCCCCCCCCCCCCCC(=O)[O-]
REMARK SMILES IDX 9 1 10 2 11 3 12 4 13 5 14 6 15 7 16 8 17 9 18 10 8 11 7 12
REMARK SMILES IDX 6 13 5 14 4 15 3 16 2 17 1 18
REMARK H PARENT
REMARK Flexibility Score: inf
ROOT
ATOM      1  C   UNL     1       9.488  21.704  -5.833  1.00  0.00     0.000 C 
ENDROOT
BRANCH   1   2
ATOM      2  C   UNL     1       8.038  21.881  -5.347  1.00  0.00     0.000 C 
BRANCH   2   3
ATOM      3  C   UNL     1       7.508  23.330  -5.390  1.00  0.00     0.000 C 
BRANCH   3   4
ATOM      4  C   UNL     1       6.543  23.637  -6.551  1.00  0.00     0.000 C 
BRANCH   4   5
ATOM      5  C   UNL     1       7.032  24.717  -7.538  1.00  0.00     0.000 C 
BRANCH   5   6
ATOM      6  C   UNL     1       6.917  24.335  -9.025  1.00  0.00     0.006 C 
BRANCH   6   7
ATOM      7  C   UNL     1       6.474  22.882  -9.236  1.00  0.00     0.053 C 
BRANCH   7   8
ATOM      8  C   UNL     1       5.112  22.836  -9.854  1.00  0.00     0.041 C 
ATOM      9  O   UNL     1       4.137  22.371  -9.206  1.00  0.00    -0.550 OA
ATOM     10  O   UNL     1       4.929  23.260 -11.164  1.00  0.00    -0.550 OA
ENDBRANCH   7   8
ENDBRANCH   6   7
ENDBRANCH   5   6
ENDBRANCH   4   5
ENDBRANCH   3   4
ENDBRANCH   2   3
ENDBRANCH   1   2
BRANCH   1  11
ATOM     11  C   UNL     1       9.786  22.484  -7.122  1.00  0.00     0.000 C 
BRANCH  11  12
ATOM     12  C   UNL     1       9.843  21.540  -8.332  1.00  0.00    -0.000 C 
BRANCH  12  13
ATOM     13  C   UNL     1      10.623  22.141  -9.513  1.00  0.00    -0.000 C 
BRANCH  13  14
ATOM     14  C   UNL     1      10.651  23.679  -9.482  1.00  0.00    -0.000 C 
BRANCH  14  15
ATOM     15  C   UNL     1      12.074  24.246  -9.608  1.00  0.00    -0.000 C 
BRANCH  15  16
ATOM     16  C   UNL     1      12.762  24.423  -8.245  1.00  0.00    -0.000 C 
BRANCH  16  17
ATOM     17  C   UNL     1      13.745  23.279  -7.975  1.00  0.00    -0.003 C 
ATOM     18  C   UNL     1      13.349  22.494  -6.728  1.00  0.00     0.004 C 
ENDBRANCH  16  17
ENDBRANCH  15  16
ENDBRANCH  14  15
ENDBRANCH  13  14
ENDBRANCH  12  13
ENDBRANCH  11  12
ENDBRANCH   1  11
TORSDOF 14
ENDMDL
MODEL 4
REMARK VINA RESULT:    -5.145      2.562      6.404
REMARK INTER + INTRA:         -11.251
REMARK INTER:                  -9.781
REMARK INTRA:                  -1.469
REMARK UNBOUND:                -1.894
REMARK SMILES CCCCCCCCCCCCCCCC(=O)[O-]
REMARK SMILES IDX 9 1 10 2 11 3 12 4 13 5 14 6 15 7 16 8 17 9 18 10 8 11 7 12
REMARK SMILES IDX 6 13 5 14 4 15 3 16 2 17 1 18
REMARK H PARENT
REMARK Flexibility Score: inf
ROOT
ATOM      1  C   UNL     1       3.847  22.484  -8.439  1.00  0.00     0.000 C 
ENDROOT
BRANCH   1   2
ATOM      2  C   UNL     1       4.637  23.075  -9.621  1.00  0.00     0.000 C 
BRANCH   2   3
ATOM      3  C   UNL     1       5.645  22.109 -10.279  1.00  0.00     0.000 C 
BRANCH   3   4
ATOM      4  C   UNL     1       6.999  22.740 -10.660  1.00  0.00     0.000 C 
BRANCH   4   5
ATOM      5  C   UNL     1       8.206  22.240  -9.841  1.00  0.00     0.000 C 
BRANCH   5   6
ATOM      6  C   UNL     1       9.245  23.321  -9.492  1.00  0.00     0.006 C 
BRANCH   6   7
ATOM      7  C   UNL     1      10.597  23.093 -10.180  1.00  0.00     0.053 C 
BRANCH   7   8
ATOM      8  C   UNL     1      11.600  24.096  -9.706  1.00  0.00     0.041 C 
ATOM      9  O   UNL     1      11.968  24.103  -8.501  1.00  0.00    -0.550 OA
ATOM     10  O   UNL     1      12.094  25.053 -10.581  1.00  0.00    -0.550 OA
ENDBRANCH   7   8
ENDBRANCH   6   7
ENDBRANCH   5   6
ENDBRANCH   4   5
ENDBRANCH   3   4
ENDBRANCH   2   3
ENDBRANCH   1   2
BRANCH   1  11
ATOM     11  C   UNL     1       4.384  22.939  -7.075  1.00  0.00     0.000 C 
BRANCH  11  12
ATOM     12  C   UNL     1       5.821  23.468  -7.200  1.00  0.00    -0.000 C 
BRANCH  12  13
ATOM     13  C   UNL     1       6.303  24.176  -5.924  1.00  0.00    -0.000 C 
BRANCH  13  14
ATOM     14  C   UNL     1       7.494  23.460  -5.263  1.00  0.00    -0.000 C 
BRANCH  14  15
ATOM     15  C   UNL     1       8.149  22.425  -6.190  1.00  0.00    -0.000 C 
BRANCH  15  16
ATOM     16  C   UNL     1       9.440  21.836  -5.600  1.00  0.00    -0.000 C 
BRANCH  16  17
ATOM     17  C   UNL     1      10.487  21.604  -6.696  1.00  0.00    -0.003 C 
ATOM     18  C   UNL     1      10.175  20.345  -7.499  1.00  0.00     0.004 C 
ENDBRANCH  16  17
ENDBRANCH  15  16
ENDBRANCH  14  15
ENDBRANCH  13  14
ENDBRANCH  12  13
ENDBRANCH  11  12
ENDBRANCH   1  11
TORSDOF 14
ENDMDL
MODEL 5
REMARK VINA RESULT:    -5.142      3.062      5.243
REMARK INTER + INTRA:         -11.244
REMARK INTER:                  -9.460
REMARK INTRA:                  -1.784
REMARK UNBOUND:                -1.894
REMARK SMILES CCCCCCCCCCCCCCCC(=O)[O-]
REMARK SMILES IDX 9 1 10 2 11 3 12 4 13 5 14 6 15 7 16 8 17 9 18 10 8 11 7 12
REMARK SMILES IDX 6 13 5 14 4 15 3 16 2 17 1 18
REMARK H PARENT
REMARK Flexibility Score: inf
ROOT
ATOM      1  C   UNL     1       9.654  20.894  -6.685  1.00  0.00     0.000 C 
ENDROOT
BRANCH   1   2
ATOM      2  C   UNL     1      10.244  20.847  -8.106  1.00  0.00     0.000 C 
BRANCH   2   3
ATOM      3  C   UNL     1       9.614  21.838  -9.107  1.00  0.00     0.000 C 
BRANCH   3   4
ATOM      4  C   UNL     1      10.617  22.754  -9.835  1.00  0.00     0.000 C 
BRANCH   4   5
ATOM      5  C   UNL     1      10.929  24.082  -9.115  1.00  0.00     0.000 C 
BRANCH   5   6
ATOM      6  C   UNL     1      12.421  24.324  -8.821  1.00  0.00     0.006 C 
BRANCH   6   7
ATOM      7  C   UNL     1      13.059  23.194  -8.004  1.00  0.00     0.053 C 
BRANCH   7   8
ATOM      8  C   UNL     1      14.421  23.595  -7.534  1.00  0.00     0.041 C 
ATOM      9  O   UNL     1      15.315  22.723  -7.362  1.00  0.00    -0.550 OA
ATOM     10  O   UNL     1      14.692  24.924  -7.238  1.00  0.00    -0.550 OA
ENDBRANCH   7   8
ENDBRANCH   6   7
ENDBRANCH   5   6
ENDBRANCH   4   5
ENDBRANCH   3   4
ENDBRANCH   2   3
ENDBRANCH   1   2
BRANCH   1  11
ATOM     11  C   UNL     1       9.365  22.324  -6.206  1.00  0.00     0.000 C 
BRANCH  11  12
ATOM     12  C   UNL     1       8.111  22.362  -5.319  1.00  0.00    -0.000 C 
BRANCH  12  13
ATOM     13  C   UNL     1       7.261  23.622  -5.551  1.00  0.00    -0.000 C 
BRANCH  13  14
ATOM     14  C   UNL     1       6.549  23.612  -6.916  1.00  0.00    -0.000 C 
BRANCH  14  15
ATOM     15  C   UNL     1       7.217  24.546  -7.937  1.00  0.00    -0.000 C 
BRANCH  15  16
ATOM     16  C   UNL     1       6.625  24.400  -9.347  1.00  0.00    -0.000 C 
BRANCH  16  17
ATOM     17  C   UNL     1       6.302  22.933  -9.656  1.00  0.00    -0.003 C 
ATOM     18  C   UNL     1       5.104  22.818 -10.593  1.00  0.00     0.004 C 
ENDBRANCH  16  17
ENDBRANCH  15  16
ENDBRANCH  14  15
ENDBRANCH  13  14
ENDBRANCH  12  13
ENDBRANCH  11  12
ENDBRANCH   1  11
TORSDOF 14
ENDMDL
MODEL 6
REMARK VINA RESULT:    -5.123      2.583      4.770
REMARK INTER + INTRA:         -11.211
REMARK INTER:                  -9.511
REMARK INTRA:                  -1.700
REMARK UNBOUND:                -1.894
REMARK SMILES CCCCCCCCCCCCCCCC(=O)[O-]
REMARK SMILES IDX 9 1 10 2 11 3 12 4 13 5 14 6 15 7 16 8 17 9 18 10 8 11 7 12
REMARK SMILES IDX 6 13 5 14 4 15 3 16 2 17 1 18
REMARK H PARENT
REMARK Flexibility Score: inf
ROOT
ATOM      1  C   UNL     1       7.625  23.598  -5.636  1.00  0.00     0.000 C 
ENDROOT
BRANCH   1   2
ATOM      2  C   UNL     1       7.648  22.263  -4.870  1.00  0.00     0.000 C 
BRANCH   2   3
ATOM      3  C   UNL     1       8.786  21.301  -5.270  1.00  0.00     0.000 C 
BRANCH   3   4
ATOM      4  C   UNL     1       9.784  21.865  -6.301  1.00  0.00     0.000 C 
BRANCH   4   5
ATOM      5  C   UNL     1      10.237  20.867  -7.385  1.00  0.00     0.000 C 
BRANCH   5   6
ATOM      6  C   UNL     1      11.655  21.106  -7.934  1.00  0.00     0.006 C 
BRANCH   6   7
ATOM      7  C   UNL     1      12.318  22.358  -7.348  1.00  0.00     0.053 C 
BRANCH   7   8
ATOM      8  C   UNL     1      12.410  23.434  -8.384  1.00  0.00     0.041 C 
ATOM      9  O   UNL     1      13.237  24.374  -8.251  1.00  0.00    -0.550 OA
ATOM     10  O   UNL     1      11.548  23.425  -9.473  1.00  0.00    -0.550 OA
ENDBRANCH   7   8
ENDBRANCH   6   7
ENDBRANCH   5   6
ENDBRANCH   4   5
ENDBRANCH   3   4
ENDBRANCH   2   3
ENDBRANCH   1   2
BRANCH   1  11
ATOM     11  C   UNL     1       6.560  23.635  -6.741  1.00  0.00     0.000 C 
BRANCH  11  12
ATOM     12  C   UNL     1       7.031  24.487  -7.929  1.00  0.00    -0.000 C 
BRANCH  12  13
ATOM     13  C   UNL     1       8.256  23.887  -8.638  1.00  0.00    -0.000 C 
BRANCH  13  14
ATOM     14  C   UNL     1       7.888  22.716  -9.565  1.00  0.00    -0.000 C 
BRANCH  14  15
ATOM     15  C   UNL     1       6.673  23.026 -10.454  1.00  0.00    -0.000 C 
BRANCH  15  16
ATOM     16  C   UNL     1       5.467  22.128 -10.139  1.00  0.00    -0.000 C 
BRANCH  16  17
ATOM     17  C   UNL     1       4.251  22.968  -9.730  1.00  0.00    -0.003 C 
ATOM     18  C   UNL     1       3.678  22.497  -8.397  1.00  0.00     0.004 C 
ENDBRANCH  16  17
ENDBRANCH  15  16
ENDBRANCH  14  15
ENDBRANCH  13  14
ENDBRANCH  12  13
ENDBRANCH  11  12
ENDBRANCH   1  11
TORSDOF 14
ENDMDL
MODEL 7
REMARK VINA RESULT:    -5.116      3.108      6.015
REMARK INTER + INTRA:         -11.198
REMARK INTER:                  -9.510
REMARK INTRA:                  -1.688
REMARK UNBOUND:                -1.894
REMARK SMILES CCCCCCCCCCCCCCCC(=O)[O-]
REMARK SMILES IDX 9 1 10 2 11 3 12 4 13 5 14 6 15 7 16 8 17 9 18 10 8 11 7 12
REMARK SMILES IDX 6 13 5 14 4 15 3 16 2 17 1 18
REMARK H PARENT
REMARK Flexibility Score: inf
ROOT
ATOM      1  C   UNL     1       7.057  23.596  -6.270  1.00  0.00     0.000 C 
ENDROOT
BRANCH   1   2
ATOM      2  C   UNL     1       6.887  24.585  -7.437  1.00  0.00     0.000 C 
BRANCH   2   3
ATOM      3  C   UNL     1       7.880  24.395  -8.603  1.00  0.00     0.000 C 
BRANCH   3   4
ATOM      4  C   UNL     1       8.563  23.014  -8.660  1.00  0.00     0.000 C 
BRANCH   4   5
ATOM      5  C   UNL     1       9.643  22.864  -9.750  1.00  0.00     0.000 C 
BRANCH   5   6
ATOM      6  C   UNL     1      11.063  22.590  -9.221  1.00  0.00     0.006 C 
BRANCH   6   7
ATOM      7  C   UNL     1      11.837  23.873  -8.897  1.00  0.00     0.053 C 
BRANCH   7   8
ATOM      8  C   UNL     1      12.989  23.573  -7.990  1.00  0.00     0.041 C 
ATOM      9  O   UNL     1      13.916  24.413  -7.845  1.00  0.00    -0.550 OA
ATOM     10  O   UNL     1      13.064  22.347  -7.344  1.00  0.00    -0.550 OA
ENDBRANCH   7   8
ENDBRANCH   6   7
ENDBRANCH   5   6
ENDBRANCH   4   5
ENDBRANCH   3   4
ENDBRANCH   2   3
ENDBRANCH   1   2
BRANCH   1  11
ATOM     11  C   UNL     1       5.760  22.850  -5.925  1.00  0.00     0.000 C 
BRANCH  11  12
ATOM     12  C   UNL     1       4.572  23.427  -6.709  1.00  0.00    -0.000 C 
BRANCH  12  13
ATOM     13  C   UNL     1       3.948  22.405  -7.673  1.00  0.00    -0.000 C 
BRANCH  13  14
ATOM     14  C   UNL     1       3.970  22.882  -9.136  1.00  0.00    -0.000 C 
BRANCH  14  15
ATOM     15  C   UNL     1       5.087  22.219  -9.957  1.00  0.00    -0.000 C 
BRANCH  15  16
ATOM     16  C   UNL     1       5.649  23.146 -11.046  1.00  0.00    -0.000 C 
BRANCH  16  17
ATOM     17  C   UNL     1       4.719  24.343 -11.280  1.00  0.00    -0.003 C 
ATOM     18  C   UNL     1       4.381  24.497 -12.760  1.00  0.00     0.004 C 
ENDBRANCH  16  17
ENDBRANCH  15  16
ENDBRANCH  14  15
ENDBRANCH  13  14
ENDBRANCH  12  13
ENDBRANCH  11  12
ENDBRANCH   1  11
TORSDOF 14
ENDMDL
MODEL 8
REMARK VINA RESULT:    -5.063      3.366      5.597
REMARK INTER + INTRA:         -11.100
REMARK INTER:                  -9.083
REMARK INTRA:                  -2.017
REMARK UNBOUND:                -1.894
REMARK SMILES CCCCCCCCCCCCCCCC(=O)[O-]
REMARK SMILES IDX 9 1 10 2 11 3 12 4 13 5 14 6 15 7 16 8 17 9 18 10 8 11 7 12
REMARK SMILES IDX 6 13 5 14 4 15 3 16 2 17 1 18
REMARK H PARENT
REMARK Flexibility Score: inf
ROOT
ATOM      1  C   UNL     1       9.360  21.674  -8.805  1.00  0.00     0.000 C 
ENDROOT
BRANCH   1   2
ATOM      2  C   UNL     1      10.282  22.447  -9.766  1.00  0.00     0.000 C 
BRANCH   2   3
ATOM      3  C   UNL     1      10.532  23.921  -9.385  1.00  0.00     0.000 C 
BRANCH   3   4
ATOM      4  C   UNL     1      11.988  24.399  -9.548  1.00  0.00     0.000 C 
BRANCH   4   5
ATOM      5  C   UNL     1      12.837  24.355  -8.262  1.00  0.00     0.000 C 
BRANCH   5   6
ATOM      6  C   UNL     1      13.426  22.974  -7.920  1.00  0.00     0.006 C 
BRANCH   6   7
ATOM      7  C   UNL     1      13.705  22.799  -6.423  1.00  0.00     0.053 C 
BRANCH   7   8
ATOM      8  C   UNL     1      15.177  22.840  -6.158  1.00  0.00     0.041 C 
ATOM      9  O   UNL     1      15.996  22.696  -7.104  1.00  0.00    -0.550 OA
ATOM     10  O   UNL     1      15.645  22.989  -4.859  1.00  0.00    -0.550 OA
ENDBRANCH   7   8
ENDBRANCH   6   7
ENDBRANCH   5   6
ENDBRANCH   4   5
ENDBRANCH   3   4
ENDBRANCH   2   3
ENDBRANCH   1   2
BRANCH   1  11
ATOM     11  C   UNL     1      10.102  21.124  -7.579  1.00  0.00     0.000 C 
BRANCH  11  12
ATOM     12  C   UNL     1       9.989  22.092  -6.391  1.00  0.00    -0.000 C 
BRANCH  12  13
ATOM     13  C   UNL     1       9.060  21.564  -5.285  1.00  0.00    -0.000 C 
BRANCH  13  14
ATOM     14  C   UNL     1       7.731  22.338  -5.209  1.00  0.00    -0.000 C 
BRANCH  14  15
ATOM     15  C   UNL     1       7.764  23.647  -6.013  1.00  0.00    -0.000 C 
BRANCH  15  16
ATOM     16  C   UNL     1       6.589  23.766  -6.996  1.00  0.00    -0.000 C 
BRANCH  16  17
ATOM     17  C   UNL     1       7.035  24.428  -8.305  1.00  0.00    -0.003 C 
ATOM     18  C   UNL     1       6.415  23.733  -9.514  1.00  0.00     0.004 C 
ENDBRANCH  16  17
ENDBRANCH  15  16
ENDBRANCH  14  15
ENDBRANCH  13  14
ENDBRANCH  12  13
ENDBRANCH  11  12
ENDBRANCH   1  11
TORSDOF 14
ENDMDL
MODEL 9
REMARK VINA RESULT:    -5.029      1.376      2.278
REMARK INTER + INTRA:         -11.039
REMARK INTER:                  -9.687
REMARK INTRA:                  -1.352
REMARK UNBOUND:                -1.894
REMARK SMILES CCCCCCCCCCCCCCCC(=O)[O-]
REMARK SMILES IDX 9 1 10 2 11 3 12 4 13 5 14 6 15 7 16 8 17 9 18 10 8 11 7 12
REMARK SMILES IDX 6 13 5 14 4 15 3 16 2 17 1 18
REMARK H PARENT
REMARK Flexibility Score: inf
ROOT
ATOM      1  C   UNL     1      12.196  23.814  -8.638  1.00  0.00     0.000 C 
ENDROOT
BRANCH   1   2
ATOM      2  C   UNL     1      12.216  22.360  -8.135  1.00  0.00     0.000 C 
BRANCH   2   3
ATOM      3  C   UNL     1      11.564  22.138  -6.754  1.00  0.00     0.000 C 
BRANCH   3   4
ATOM      4  C   UNL     1      10.324  21.223  -6.757  1.00  0.00     0.000 C 
BRANCH   4   5
ATOM      5  C   UNL     1       9.150  21.711  -5.884  1.00  0.00     0.000 C 
BRANCH   5   6
ATOM      6  C   UNL     1       8.391  22.929  -6.441  1.00  0.00     0.006 C 
BRANCH   6   7
ATOM      7  C   UNL     1       7.342  23.475  -5.465  1.00  0.00     0.053 C 
BRANCH   7   8
ATOM      8  C   UNL     1       6.721  24.723  -6.010  1.00  0.00     0.041 C 
ATOM      9  O   UNL     1       6.892  25.041  -7.217  1.00  0.00    -0.550 OA
ATOM     10  O   UNL     1       5.995  25.560  -5.173  1.00  0.00    -0.550 OA
ENDBRANCH   7   8
ENDBRANCH   6   7
ENDBRANCH   5   6
ENDBRANCH   4   5
ENDBRANCH   3   4
ENDBRANCH   2   3
ENDBRANCH   1   2
BRANCH   1  11
ATOM     11  C   UNL     1      11.385  23.988  -9.930  1.00  0.00     0.000 C 
BRANCH  11  12
ATOM     12  C   UNL     1      10.372  22.846 -10.099  1.00  0.00    -0.000 C 
BRANCH  12  13
ATOM     13  C   UNL     1       8.953  23.246  -9.663  1.00  0.00    -0.000 C 
BRANCH  13  14
ATOM     14  C   UNL     1       7.886  22.235 -10.120  1.00  0.00    -0.000 C 
BRANCH  14  15
ATOM     15  C   UNL     1       6.455  22.728  -9.857  1.00  0.00    -0.000 C 
BRANCH  15  16
ATOM     16  C   UNL     1       5.765  23.244 -11.130  1.00  0.00    -0.000 C 
BRANCH  16  17
ATOM     17  C   UNL     1       5.059  24.579 -10.867  1.00  0.00    -0.003 C 
ATOM     18  C   UNL     1       4.170  24.973 -12.042  1.00  0.00     0.004 C 
ENDBRANCH  16  17
ENDBRANCH  15  16
ENDBRANCH  14  15
ENDBRANCH  13  14
ENDBRANCH  12  13
ENDBRANCH  11  12
ENDBRANCH   1  11
TORSDOF 14
ENDMDL
