MODEL 1
REMARK VINA RESULT:    -3.762      0.000      0.000
REMARK INTER + INTRA:          -8.593
REMARK INTER:                  -6.840
REMARK INTRA:                  -1.752
REMARK UNBOUND:                -1.752
REMARK SMILES CCCCCCCCCCCCCCCC(=O)[O-]
REMARK SMILES IDX 9 1 10 2 11 3 12 4 13 5 14 6 15 7 16 8 17 9 18 10 8 11 7 12
REMARK SMILES IDX 6 13 5 14 4 15 3 16 2 17 1 18
REMARK H PARENT
REMARK Flexibility Score: inf
ROOT
ATOM      1  C   UNL     1     -13.895 -15.734   4.137  1.00  0.00     0.000 C 
ENDROOT
BRANCH   1   2
ATOM      2  C   UNL     1     -13.700 -16.089   2.651  1.00  0.00     0.000 C 
BRANCH   2   3
ATOM      3  C   UNL     1     -13.837 -14.910   1.670  1.00  0.00     0.000 C 
BRANCH   3   4
ATOM      4  C   UNL     1     -12.481 -14.410   1.140  1.00  0.00     0.000 C 
BRANCH   4   5
ATOM      5  C   UNL     1     -12.098 -13.035   1.711  1.00  0.00     0.000 C 
BRANCH   5   6
ATOM      6  C   UNL     1     -13.177 -12.458   2.644  1.00  0.00     0.006 C 
BRANCH   6   7
ATOM      7  C   UNL     1     -12.571 -11.798   3.890  1.00  0.00     0.053 C 
BRANCH   7   8
ATOM      8  C   UNL     1     -13.247 -12.260   5.145  1.00  0.00     0.041 C 
ATOM      9  O   UNL     1     -12.569 -12.739   6.091  1.00  0.00    -0.550 OA
ATOM     10  O   UNL     1     -14.623 -12.128   5.283  1.00  0.00    -0.550 OA
ENDBRANCH   7   8
ENDBRANCH   6   7
ENDBRANCH   5   6
ENDBRANCH   4   5
ENDBRANCH   3   4
ENDBRANCH   2   3
ENDBRANCH   1   2
BRANCH   1  11
ATOM     11  C   UNL     1     -15.369 -15.777   4.576  1.00  0.00     0.000 C 
BRANCH  11  12
ATOM     12  C   UNL     1     -15.562 -16.487   5.925  1.00  0.00    -0.000 C 
BRANCH  12  13
ATOM     13  C   UNL     1     -15.482 -18.018   5.808  1.00  0.00    -0.000 C 
BRANCH  13  14
ATOM     14  C   UNL     1     -14.271 -18.564   6.580  1.00  0.00    -0.000 C 
BRANCH  14  15
ATOM     15  C   UNL     1     -13.515 -19.664   5.813  1.00  0.00    -0.000 C 
BRANCH  15  16
ATOM     16  C   UNL     1     -13.357 -19.413   4.303  1.00  0.00    -0.000 C 
BRANCH  16  17
ATOM     17  C   UNL     1     -11.910 -19.097   3.898  1.00  0.00    -0.003 C 
ATOM     18  C   UNL     1     -11.124 -18.518   5.070  1.00  0.00     0.004 C 
ENDBRANCH  16  17
ENDBRANCH  15  16
ENDBRANCH  14  15
ENDBRANCH  13  14
ENDBRANCH  12  13
ENDBRANCH  11  12
ENDBRANCH   1  11
TORSDOF 14
ENDMDL
MODEL 2
REMARK VINA RESULT:    -3.532      2.436      6.453
REMARK INTER + INTRA:          -8.175
REMARK INTER:                  -6.335
REMARK INTRA:                  -1.840
REMARK UNBOUND:                -1.752
REMARK SMILES CCCCCCCCCCCCCCCC(=O)[O-]
REMARK SMILES IDX 9 1 10 2 11 3 12 4 13 5 14 6 15 7 16 8 17 9 18 10 8 11 7 12
REMARK SMILES IDX 6 13 5 14 4 15 3 16 2 17 1 18
REMARK H PARENT
REMARK Flexibility Score: inf
ROOT
ATOM      1  C   UNL     1     -14.869 -15.787   3.537  1.00  0.00     0.000 C 
ENDROOT
BRANCH   1   2
ATOM      2  C   UNL     1     -14.662 -15.898   5.058  1.00  0.00     0.000 C 
BRANCH   2   3
ATOM      3  C   UNL     1     -15.790 -16.613   5.825  1.00  0.00     0.000 C 
BRANCH   3   4
ATOM      4  C   UNL     1     -15.360 -17.978   6.391  1.00  0.00     0.000 C 
BRANCH   4   5
ATOM      5  C   UNL     1     -15.349 -19.081   5.321  1.00  0.00     0.000 C 
BRANCH   5   6
ATOM      6  C   UNL     1     -13.981 -19.776   5.200  1.00  0.00     0.006 C 
BRANCH   6   7
ATOM      7  C   UNL     1     -12.839 -18.902   5.734  1.00  0.00     0.053 C 
BRANCH   7   8
ATOM      8  C   UNL     1     -11.691 -18.842   4.773  1.00  0.00     0.041 C 
ATOM      9  O   UNL     1     -10.549 -18.490   5.169  1.00  0.00    -0.550 OA
ATOM     10  O   UNL     1     -11.876 -19.208   3.445  1.00  0.00    -0.550 OA
ENDBRANCH   7   8
ENDBRANCH   6   7
ENDBRANCH   5   6
ENDBRANCH   4   5
ENDBRANCH   3   4
ENDBRANCH   2   3
ENDBRANCH   1   2
BRANCH   1  11
ATOM     11  C   UNL     1     -13.689 -16.355   2.728  1.00  0.00     0.000 C 
BRANCH  11  12
ATOM     12  C   UNL     1     -13.145 -15.353   1.696  1.00  0.00    -0.000 C 
BRANCH  12  13
ATOM     13  C   UNL     1     -13.814 -13.973   1.799  1.00  0.00    -0.000 C 
BRANCH  13  14
ATOM     14  C   UNL     1     -12.776 -12.884   2.110  1.00  0.00    -0.000 C 
BRANCH  14  15
ATOM     15  C   UNL     1     -13.295 -11.823   3.097  1.00  0.00    -0.000 C 
BRANCH  15  16
ATOM     16  C   UNL     1     -12.640 -11.855   4.490  1.00  0.00    -0.000 C 
BRANCH  16  17
ATOM     17  C   UNL     1     -13.502 -12.572   5.539  1.00  0.00    -0.003 C 
ATOM     18  C   UNL     1     -14.987 -12.317   5.298  1.00  0.00     0.004 C 
ENDBRANCH  16  17
ENDBRANCH  15  16
ENDBRANCH  14  15
ENDBRANCH  13  14
ENDBRANCH  12  13
ENDBRANCH  11  12
ENDBRANCH   1  11
TORSDOF 14
ENDMDL
MODEL 3
REMARK VINA RESULT:    -3.492      0.897      1.749
REMARK INTER + INTRA:          -8.102
REMARK INTER:                  -6.370
REMARK INTRA:                  -1.732
REMARK UNBOUND:                -1.752
REMARK SMILES CCCCCCCCCCCCCCCC(=O)[O-]
REMARK SMILES IDX 9 1 10 2 11 3 12 4 13 5 14 6 15 7 16 8 17 9 18 10 8 11 7 12
REMARK SMILES IDX 6 13 5 14 4 15 3 16 2 17 1 18
REMARK H PARENT
REMARK Flexibility Score: inf
ROOT
ATOM      1  C   UNL     1     -13.580 -16.131   2.489  1.00  0.00     0.000 C 
ENDROOT
BRANCH   1   2
ATOM      2  C   UNL     1     -13.676 -14.853   1.634  1.00  0.00     0.000 C 
BRANCH   2   3
ATOM      3  C   UNL     1     -12.328 -14.259   1.185  1.00  0.00     0.000 C 
BRANCH   3   4
ATOM      4  C   UNL     1     -12.066 -12.859   1.767  1.00  0.00     0.000 C 
BRANCH   4   5
ATOM      5  C   UNL     1     -13.214 -12.370   2.665  1.00  0.00     0.000 C 
BRANCH   5   6
ATOM      6  C   UNL     1     -12.721 -11.847   4.026  1.00  0.00     0.006 C 
BRANCH   6   7
ATOM      7  C   UNL     1     -13.357 -12.602   5.201  1.00  0.00     0.053 C 
BRANCH   7   8
ATOM      8  C   UNL     1     -14.741 -12.108   5.492  1.00  0.00     0.041 C 
ATOM      9  O   UNL     1     -15.142 -11.019   5.002  1.00  0.00    -0.550 OA
ATOM     10  O   UNL     1     -15.599 -12.866   6.278  1.00  0.00    -0.550 OA
ENDBRANCH   7   8
ENDBRANCH   6   7
ENDBRANCH   5   6
ENDBRANCH   4   5
ENDBRANCH   3   4
ENDBRANCH   2   3
ENDBRANCH   1   2
BRANCH   1  11
ATOM     11  C   UNL     1     -13.803 -15.867   3.988  1.00  0.00     0.000 C 
BRANCH  11  12
ATOM     12  C   UNL     1     -15.292 -15.881   4.374  1.00  0.00    -0.000 C 
BRANCH  12  13
ATOM     13  C   UNL     1     -15.530 -16.390   5.804  1.00  0.00    -0.000 C 
BRANCH  13  14
ATOM     14  C   UNL     1     -15.507 -17.925   5.850  1.00  0.00    -0.000 C 
BRANCH  14  15
ATOM     15  C   UNL     1     -14.266 -18.487   6.568  1.00  0.00    -0.000 C 
BRANCH  15  16
ATOM     16  C   UNL     1     -13.406 -19.446   5.725  1.00  0.00    -0.000 C 
BRANCH  16  17
ATOM     17  C   UNL     1     -12.110 -18.798   5.218  1.00  0.00    -0.003 C 
ATOM     18  C   UNL     1     -11.899 -19.081   3.734  1.00  0.00     0.004 C 
ENDBRANCH  16  17
ENDBRANCH  15  16
ENDBRANCH  14  15
ENDBRANCH  13  14
ENDBRANCH  12  13
ENDBRANCH  11  12
ENDBRANCH   1  11
TORSDOF 14
ENDMDL
MODEL 4
REMARK VINA RESULT:    -3.467      2.351      3.299
REMARK INTER + INTRA:          -8.057
REMARK INTER:                  -6.640
REMARK INTRA:                  -1.417
REMARK UNBOUND:                -1.752
REMARK SMILES CCCCCCCCCCCCCCCC(=O)[O-]
REMARK SMILES IDX 9 1 10 2 11 3 12 4 13 5 14 6 15 7 16 8 17 9 18 10 8 11 7 12
REMARK SMILES IDX 6 13 5 14 4 15 3 16 2 17 1 18
REMARK H PARENT
REMARK Flexibility Score: inf
ROOT
ATOM      1  C   UNL     1     -13.889 -13.116   5.722  1.00  0.00     0.000 C 
ENDROOT
BRANCH   1   2
ATOM      2  C   UNL     1     -13.700 -11.820   4.913  1.00  0.00     0.000 C 
BRANCH   2   3
ATOM      3  C   UNL     1     -12.503 -11.819   3.943  1.00  0.00     0.000 C 
BRANCH   3   4
ATOM      4  C   UNL     1     -12.857 -12.378   2.553  1.00  0.00     0.000 C 
BRANCH   4   5
ATOM      5  C   UNL     1     -14.172 -11.802   2.004  1.00  0.00     0.000 C 
BRANCH   5   6
ATOM      6  C   UNL     1     -13.991 -10.413   1.366  1.00  0.00     0.006 C 
BRANCH   6   7
ATOM      7  C   UNL     1     -14.713  -9.315   2.157  1.00  0.00     0.053 C 
BRANCH   7   8
ATOM      8  C   UNL     1     -13.746  -8.363   2.792  1.00  0.00     0.041 C 
ATOM      9  O   UNL     1     -13.166  -7.489   2.095  1.00  0.00    -0.550 OA
ATOM     10  O   UNL     1     -13.510  -8.420   4.160  1.00  0.00    -0.550 OA
ENDBRANCH   7   8
ENDBRANCH   6   7
ENDBRANCH   5   6
ENDBRANCH   4   5
ENDBRANCH   3   4
ENDBRANCH   2   3
ENDBRANCH   1   2
BRANCH   1  11
ATOM     11  C   UNL     1     -15.135 -13.912   5.296  1.00  0.00     0.000 C 
BRANCH  11  12
ATOM     12  C   UNL     1     -14.854 -15.417   5.158  1.00  0.00    -0.000 C 
BRANCH  12  13
ATOM     13  C   UNL     1     -14.342 -15.801   3.760  1.00  0.00    -0.000 C 
BRANCH  13  14
ATOM     14  C   UNL     1     -13.592 -17.140   3.800  1.00  0.00    -0.000 C 
BRANCH  14  15
ATOM     15  C   UNL     1     -13.875 -17.950   5.079  1.00  0.00    -0.000 C 
BRANCH  15  16
ATOM     16  C   UNL     1     -12.846 -19.051   5.393  1.00  0.00    -0.000 C 
BRANCH  16  17
ATOM     17  C   UNL     1     -11.591 -18.964   4.513  1.00  0.00    -0.003 C 
ATOM     18  C   UNL     1     -10.399 -18.438   5.307  1.00  0.00     0.004 C 
ENDBRANCH  16  17
ENDBRANCH  15  16
ENDBRANCH  14  15
ENDBRANCH  13  14
ENDBRANCH  12  13
ENDBRANCH  11  12
ENDBRANCH   1  11
TORSDOF 14
ENDMDL
MODEL 5
REMARK VINA RESULT:    -3.440      2.566      6.393
REMARK INTER + INTRA:          -8.007
REMARK INTER:                  -6.144
REMARK INTRA:                  -1.863
REMARK UNBOUND:                -1.752
REMARK SMILES CCCCCCCCCCCCCCCC(=O)[O-]
REMARK SMILES IDX 9 1 10 2 11 3 12 4 13 5 14 6 15 7 16 8 17 9 18 10 8 11 7 12
REMARK SMILES IDX 6 13 5 14 4 15 3 16 2 17 1 18
REMARK H PARENT
REMARK Flexibility Score: inf
ROOT
ATOM      1  C   UNL     1     -13.433 -12.874   5.715  1.00  0.00     0.000 C 
ENDROOT
BRANCH   1   2
ATOM      2  C   UNL     1     -14.938 -13.174   5.594  1.00  0.00     0.000 C 
BRANCH   2   3
ATOM      3  C   UNL     1     -15.299 -14.375   4.700  1.00  0.00     0.000 C 
BRANCH   3   4
ATOM      4  C   UNL     1     -14.194 -15.445   4.656  1.00  0.00     0.000 C 
BRANCH   4   5
ATOM      5  C   UNL     1     -14.674 -16.809   5.175  1.00  0.00     0.000 C 
BRANCH   5   6
ATOM      6  C   UNL     1     -14.025 -17.990   4.431  1.00  0.00     0.006 C 
BRANCH   6   7
ATOM      7  C   UNL     1     -12.987 -18.718   5.295  1.00  0.00     0.053 C 
BRANCH   7   8
ATOM      8  C   UNL     1     -11.641 -18.743   4.639  1.00  0.00     0.041 C 
ATOM      9  O   UNL     1     -11.534 -19.035   3.419  1.00  0.00    -0.550 OA
ATOM     10  O   UNL     1     -10.506 -18.410   5.368  1.00  0.00    -0.550 OA
ENDBRANCH   7   8
ENDBRANCH   6   7
ENDBRANCH   5   6
ENDBRANCH   4   5
ENDBRANCH   3   4
ENDBRANCH   2   3
ENDBRANCH   1   2
BRANCH   1  11
ATOM     11  C   UNL     1     -12.921 -11.925   4.616  1.00  0.00     0.000 C 
BRANCH  11  12
ATOM     12  C   UNL     1     -13.821 -10.692   4.436  1.00  0.00    -0.000 C 
BRANCH  12  13
ATOM     13  C   UNL     1     -13.854 -10.188   2.985  1.00  0.00    -0.000 C 
BRANCH  13  14
ATOM     14  C   UNL     1     -14.847 -11.004   2.144  1.00  0.00    -0.000 C 
BRANCH  14  15
ATOM     15  C   UNL     1     -14.156 -11.923   1.121  1.00  0.00    -0.000 C 
BRANCH  15  16
ATOM     16  C   UNL     1     -14.242 -13.427   1.435  1.00  0.00    -0.000 C 
BRANCH  16  17
ATOM     17  C   UNL     1     -12.871 -14.118   1.436  1.00  0.00    -0.003 C 
ATOM     18  C   UNL     1     -11.742 -13.099   1.318  1.00  0.00     0.004 C 
ENDBRANCH  16  17
ENDBRANCH  15  16
ENDBRANCH  14  15
ENDBRANCH  13  14
ENDBRANCH  12  13
ENDBRANCH  11  12
ENDBRANCH   1  11
TORSDOF 14
ENDMDL
MODEL 6
REMARK VINA RESULT:    -3.398      1.829      3.523
REMARK INTER + INTRA:          -7.932
REMARK INTER:                  -5.880
REMARK INTRA:                  -2.052
REMARK UNBOUND:                -1.752
REMARK SMILES CCCCCCCCCCCCCCCC(=O)[O-]
REMARK SMILES IDX 9 1 10 2 11 3 12 4 13 5 14 6 15 7 16 8 17 9 18 10 8 11 7 12
REMARK SMILES IDX 6 13 5 14 4 15 3 16 2 17 1 18
REMARK H PARENT
REMARK Flexibility Score: inf
ROOT
ATOM      1  C   UNL     1     -14.673 -15.801   3.431  1.00  0.00     0.000 C 
ENDROOT
BRANCH   1   2
ATOM      2  C   UNL     1     -14.256 -15.165   4.770  1.00  0.00     0.000 C 
BRANCH   2   3
ATOM      3  C   UNL     1     -15.303 -14.234   5.410  1.00  0.00     0.000 C 
BRANCH   3   4
ATOM      4  C   UNL     1     -14.730 -12.856   5.786  1.00  0.00     0.000 C 
BRANCH   4   5
ATOM      5  C   UNL     1     -13.232 -12.734   5.464  1.00  0.00     0.000 C 
BRANCH   5   6
ATOM      6  C   UNL     1     -12.941 -11.674   4.386  1.00  0.00     0.006 C 
BRANCH   6   7
ATOM      7  C   UNL     1     -12.797 -12.294   2.990  1.00  0.00     0.053 C 
BRANCH   7   8
ATOM      8  C   UNL     1     -13.865 -11.810   2.058  1.00  0.00     0.041 C 
ATOM      9  O   UNL     1     -14.789 -12.585   1.694  1.00  0.00    -0.550 OA
ATOM     10  O   UNL     1     -13.860 -10.493   1.617  1.00  0.00    -0.550 OA
ENDBRANCH   7   8
ENDBRANCH   6   7
ENDBRANCH   5   6
ENDBRANCH   4   5
ENDBRANCH   3   4
ENDBRANCH   2   3
ENDBRANCH   1   2
BRANCH   1  11
ATOM     11  C   UNL     1     -13.535 -15.817   2.395  1.00  0.00     0.000 C 
BRANCH  11  12
ATOM     12  C   UNL     1     -13.148 -17.242   1.968  1.00  0.00    -0.000 C 
BRANCH  12  13
ATOM     13  C   UNL     1     -13.945 -18.324   2.714  1.00  0.00    -0.000 C 
BRANCH  13  14
ATOM     14  C   UNL     1     -13.016 -19.194   3.573  1.00  0.00    -0.000 C 
BRANCH  14  15
ATOM     15  C   UNL     1     -12.726 -18.581   4.955  1.00  0.00    -0.000 C 
BRANCH  15  16
ATOM     16  C   UNL     1     -13.575 -19.146   6.108  1.00  0.00    -0.000 C 
BRANCH  16  17
ATOM     17  C   UNL     1     -14.777 -18.257   6.457  1.00  0.00    -0.003 C 
ATOM     18  C   UNL     1     -16.060 -18.798   5.832  1.00  0.00     0.004 C 
ENDBRANCH  16  17
ENDBRANCH  15  16
ENDBRANCH  14  15
ENDBRANCH  13  14
ENDBRANCH  12  13
ENDBRANCH  11  12
ENDBRANCH   1  11
TORSDOF 14
ENDMDL
MODEL 7
REMARK VINA RESULT:    -3.388      1.821      3.350
REMARK INTER + INTRA:          -7.913
REMARK INTER:                  -5.076
REMARK INTRA:                  -2.837
REMARK UNBOUND:                -1.752
REMARK SMILES CCCCCCCCCCCCCCCC(=O)[O-]
REMARK SMILES IDX 9 1 10 2 11 3 12 4 13 5 14 6 15 7 16 8 17 9 18 10 8 11 7 12
REMARK SMILES IDX 6 13 5 14 4 15 3 16 2 17 1 18
REMARK H PARENT
REMARK Flexibility Score: inf
ROOT
ATOM      1  C   UNL     1     -12.164 -18.593   4.984  1.00  0.00     0.000 C 
ENDROOT
BRANCH   1   2
ATOM      2  C   UNL     1     -12.074 -19.077   3.525  1.00  0.00     0.000 C 
BRANCH   2   3
ATOM      3  C   UNL     1     -12.998 -18.347   2.532  1.00  0.00     0.000 C 
BRANCH   3   4
ATOM      4  C   UNL     1     -13.318 -16.903   2.960  1.00  0.00     0.000 C 
BRANCH   4   5
ATOM      5  C   UNL     1     -14.778 -16.515   2.677  1.00  0.00     0.000 C 
BRANCH   5   6
ATOM      6  C   UNL     1     -15.331 -15.503   3.696  1.00  0.00     0.006 C 
BRANCH   6   7
ATOM      7  C   UNL     1     -14.271 -15.078   4.722  1.00  0.00     0.053 C 
BRANCH   7   8
ATOM      8  C   UNL     1     -14.015 -13.603   4.672  1.00  0.00     0.041 C 
ATOM      9  O   UNL     1     -14.051 -12.989   3.573  1.00  0.00    -0.550 OA
ATOM     10  O   UNL     1     -13.768 -12.900   5.845  1.00  0.00    -0.550 OA
ENDBRANCH   7   8
ENDBRANCH   6   7
ENDBRANCH   5   6
ENDBRANCH   4   5
ENDBRANCH   3   4
ENDBRANCH   2   3
ENDBRANCH   1   2
BRANCH   1  11
ATOM     11  C   UNL     1     -13.196 -19.376   5.814  1.00  0.00     0.000 C 
BRANCH  11  12
ATOM     12  C   UNL     1     -14.295 -18.471   6.393  1.00  0.00    -0.000 C 
BRANCH  12  13
ATOM     13  C   UNL     1     -15.634 -18.613   5.652  1.00  0.00    -0.000 C 
BRANCH  13  14
ATOM     14  C   UNL     1     -15.867 -20.068   5.218  1.00  0.00    -0.000 C 
BRANCH  14  15
ATOM     15  C   UNL     1     -15.992 -20.228   3.692  1.00  0.00    -0.000 C 
BRANCH  15  16
ATOM     16  C   UNL     1     -15.129 -21.347   3.082  1.00  0.00    -0.000 C 
BRANCH  16  17
ATOM     17  C   UNL     1     -14.642 -22.363   4.126  1.00  0.00    -0.003 C 
ATOM     18  C   UNL     1     -13.152 -22.645   3.965  1.00  0.00     0.004 C 
ENDBRANCH  16  17
ENDBRANCH  15  16
ENDBRANCH  14  15
ENDBRANCH  13  14
ENDBRANCH  12  13
ENDBRANCH  11  12
ENDBRANCH   1  11
TORSDOF 14
ENDMDL
MODEL 8
REMARK VINA RESULT:    -3.331      3.704      6.726
REMARK INTER + INTRA:          -7.809
REMARK INTER:                  -5.981
REMARK INTRA:                  -1.828
REMARK UNBOUND:                -1.752
REMARK SMILES CCCCCCCCCCCCCCCC(=O)[O-]
REMARK SMILES IDX 9 1 10 2 11 3 12 4 13 5 14 6 15 7 16 8 17 9 18 10 8 11 7 12
REMARK SMILES IDX 6 13 5 14 4 15 3 16 2 17 1 18
REMARK H PARENT
REMARK Flexibility Score: inf
ROOT
ATOM      1  C   UNL     1     -14.237 -18.468   6.357  1.00  0.00     0.000 C 
ENDROOT
BRANCH   1   2
ATOM      2  C   UNL     1     -13.001 -19.180   5.776  1.00  0.00     0.000 C 
BRANCH   2   3
ATOM      3  C   UNL     1     -12.194 -18.363   4.749  1.00  0.00     0.000 C 
BRANCH   3   4
ATOM      4  C   UNL     1     -12.005 -19.099   3.412  1.00  0.00     0.000 C 
BRANCH   4   5
ATOM      5  C   UNL     1     -13.288 -19.123   2.566  1.00  0.00     0.000 C 
BRANCH   5   6
ATOM      6  C   UNL     1     -13.896 -20.532   2.449  1.00  0.00     0.006 C 
BRANCH   6   7
ATOM      7  C   UNL     1     -12.929 -21.621   2.931  1.00  0.00     0.053 C 
BRANCH   7   8
ATOM      8  C   UNL     1     -13.527 -22.446   4.029  1.00  0.00     0.041 C 
ATOM      9  O   UNL     1     -12.965 -23.510   4.402  1.00  0.00    -0.550 OA
ATOM     10  O   UNL     1     -14.687 -22.022   4.665  1.00  0.00    -0.550 OA
ENDBRANCH   7   8
ENDBRANCH   6   7
ENDBRANCH   5   6
ENDBRANCH   4   5
ENDBRANCH   3   4
ENDBRANCH   2   3
ENDBRANCH   1   2
BRANCH   1  11
ATOM     11  C   UNL     1     -15.493 -18.639   5.484  1.00  0.00     0.000 C 
BRANCH  11  12
ATOM     12  C   UNL     1     -15.822 -17.377   4.670  1.00  0.00    -0.000 C 
BRANCH  12  13
ATOM     13  C   UNL     1     -15.043 -16.142   5.150  1.00  0.00    -0.000 C 
BRANCH  13  14
ATOM     14  C   UNL     1     -14.308 -15.470   3.980  1.00  0.00    -0.000 C 
BRANCH  14  15
ATOM     15  C   UNL     1     -14.395 -13.933   4.019  1.00  0.00    -0.000 C 
BRANCH  15  16
ATOM     16  C   UNL     1     -14.175 -13.304   5.406  1.00  0.00    -0.000 C 
BRANCH  16  17
ATOM     17  C   UNL     1     -12.989 -12.330   5.441  1.00  0.00    -0.003 C 
ATOM     18  C   UNL     1     -12.660 -11.816   4.043  1.00  0.00     0.004 C 
ENDBRANCH  16  17
ENDBRANCH  15  16
ENDBRANCH  14  15
ENDBRANCH  13  14
ENDBRANCH  12  13
ENDBRANCH  11  12
ENDBRANCH   1  11
TORSDOF 14
ENDMDL
MODEL 9
REMARK VINA RESULT:    -3.329      2.079      4.367
REMARK INTER + INTRA:          -7.805
REMARK INTER:                  -5.192
REMARK INTRA:                  -2.613
REMARK UNBOUND:                -1.752
REMARK SMILES CCCCCCCCCCCCCCCC(=O)[O-]
REMARK SMILES IDX 9 1 10 2 11 3 12 4 13 5 14 6 15 7 16 8 17 9 18 10 8 11 7 12
REMARK SMILES IDX 6 13 5 14 4 15 3 16 2 17 1 18
REMARK H PARENT
REMARK Flexibility Score: inf
ROOT
ATOM      1  C   UNL     1     -12.257 -18.554   5.342  1.00  0.00     0.000 C 
ENDROOT
BRANCH   1   2
ATOM      2  C   UNL     1     -13.487 -19.296   5.898  1.00  0.00     0.000 C 
BRANCH   2   3
ATOM      3  C   UNL     1     -14.583 -18.394   6.497  1.00  0.00     0.000 C 
BRANCH   3   4
ATOM      4  C   UNL     1     -15.837 -18.304   5.608  1.00  0.00     0.000 C 
BRANCH   4   5
ATOM      5  C   UNL     1     -15.961 -16.944   4.903  1.00  0.00     0.000 C 
BRANCH   5   6
ATOM      6  C   UNL     1     -15.358 -15.791   5.726  1.00  0.00     0.006 C 
BRANCH   6   7
ATOM      7  C   UNL     1     -14.436 -14.900   4.882  1.00  0.00     0.053 C 
BRANCH   7   8
ATOM      8  C   UNL     1     -14.419 -13.488   5.385  1.00  0.00     0.041 C 
ATOM      9  O   UNL     1     -15.494 -12.841   5.493  1.00  0.00    -0.550 OA
ATOM     10  O   UNL     1     -13.220 -12.900   5.767  1.00  0.00    -0.550 OA
ENDBRANCH   7   8
ENDBRANCH   6   7
ENDBRANCH   5   6
ENDBRANCH   4   5
ENDBRANCH   3   4
ENDBRANCH   2   3
ENDBRANCH   1   2
BRANCH   1  11
ATOM     11  C   UNL     1     -12.101 -18.711   3.819  1.00  0.00     0.000 C 
BRANCH  11  12
ATOM     12  C   UNL     1     -12.869 -17.635   3.034  1.00  0.00    -0.000 C 
BRANCH  12  13
ATOM     13  C   UNL     1     -13.954 -18.227   2.120  1.00  0.00    -0.000 C 
BRANCH  13  14
ATOM     14  C   UNL     1     -13.872 -19.761   2.097  1.00  0.00    -0.000 C 
BRANCH  14  15
ATOM     15  C   UNL     1     -15.147 -20.440   2.629  1.00  0.00    -0.000 C 
BRANCH  15  16
ATOM     16  C   UNL     1     -14.904 -21.659   3.536  1.00  0.00    -0.000 C 
BRANCH  16  17
ATOM     17  C   UNL     1     -13.453 -22.160   3.489  1.00  0.00    -0.003 C 
ATOM     18  C   UNL     1     -13.168 -23.124   4.637  1.00  0.00     0.004 C 
ENDBRANCH  16  17
ENDBRANCH  15  16
ENDBRANCH  14  15
ENDBRANCH  13  14
ENDBRANCH  12  13
ENDBRANCH  11  12
ENDBRANCH   1  11
TORSDOF 14
ENDMDL
