MODEL 1
REMARK VINA RESULT:    -5.965      0.000      0.000
REMARK INTER + INTRA:          -6.984
REMARK INTER:                  -6.837
REMARK INTRA:                  -0.147
REMARK UNBOUND:                -0.147
REMARK SMILES O=C([O-])C=Cc1ccc(O)cc1
REMARK SMILES IDX 6 1 7 2 12 3 8 4 11 5 9 6 5 7 4 8 2 9 1 10 3 11 10 12
REMARK H PARENT 10 13
REMARK Flexibility Score: inf
ROOT
ATOM      1  C   UNL     1      13.445 -13.192  28.430  1.00  0.00    -0.025 A 
ATOM      2  C   UNL     1      13.845 -13.813  29.625  1.00  0.00     0.012 A 
ATOM      3  C   UNL     1      13.860 -13.750  27.203  1.00  0.00     0.012 A 
ATOM      4  C   UNL     1      14.618 -14.979  29.598  1.00  0.00     0.047 A 
ATOM      5  C   UNL     1      14.633 -14.914  27.180  1.00  0.00     0.047 A 
ATOM      6  C   UNL     1      15.012 -15.533  28.374  1.00  0.00     0.115 A 
ENDROOT
BRANCH   1   7
ATOM      7  C   UNL     1      12.634 -11.952  28.512  1.00  0.00     0.010 C 
ATOM      8  C   UNL     1      11.759 -11.699  29.494  1.00  0.00     0.025 C 
BRANCH   8   9
ATOM      9  C   UNL     1      10.983 -10.450  29.542  1.00  0.00     0.064 C 
ATOM     10  O   UNL     1      11.546  -9.381  29.890  1.00  0.00    -0.545 OA
ATOM     11  O   UNL     1       9.632 -10.431  29.209  1.00  0.00    -0.545 OA
ENDBRANCH   8   9
ENDBRANCH   1   7
BRANCH   6  12
ATOM     12  O   UNL     1      15.783 -16.693  28.335  1.00  0.00    -0.508 OA
ATOM     13  H   UNL     1      15.687 -17.416  29.039  1.00  0.00     0.293 HD
ENDBRANCH   6  12
TORSDOF 3
ENDMDL
MODEL 2
REMARK VINA RESULT:    -5.716      1.118      5.692
REMARK INTER + INTRA:          -6.698
REMARK INTER:                  -6.545
REMARK INTRA:                  -0.153
REMARK UNBOUND:                -0.147
REMARK SMILES O=C([O-])C=Cc1ccc(O)cc1
REMARK SMILES IDX 6 1 7 2 12 3 8 4 11 5 9 6 5 7 4 8 2 9 1 10 3 11 10 12
REMARK H PARENT 10 13
REMARK Flexibility Score: inf
ROOT
ATOM      1  C   UNL     1      12.795 -12.711  28.462  1.00  0.00    -0.025 A 
ATOM      2  C   UNL     1      13.342 -12.170  29.638  1.00  0.00     0.012 A 
ATOM      3  C   UNL     1      11.657 -12.099  27.898  1.00  0.00     0.012 A 
ATOM      4  C   UNL     1      12.782 -11.029  30.224  1.00  0.00     0.047 A 
ATOM      5  C   UNL     1      11.101 -10.959  28.487  1.00  0.00     0.047 A 
ATOM      6  C   UNL     1      11.662 -10.421  29.648  1.00  0.00     0.115 A 
ENDROOT
BRANCH   1   7
ATOM      7  C   UNL     1      13.419 -13.927  27.884  1.00  0.00     0.010 C 
ATOM      8  C   UNL     1      14.378 -14.635  28.496  1.00  0.00     0.025 C 
BRANCH   8   9
ATOM      9  C   UNL     1      14.960 -15.842  27.890  1.00  0.00     0.064 C 
ATOM     10  O   UNL     1      15.350 -15.811  26.695  1.00  0.00    -0.545 OA
ATOM     11  O   UNL     1      15.086 -17.021  28.618  1.00  0.00    -0.545 OA
ENDBRANCH   8   9
ENDBRANCH   1   7
BRANCH   6  12
ATOM     12  O   UNL     1      11.095  -9.284  30.223  1.00  0.00    -0.508 OA
ATOM     13  H   UNL     1      10.508  -9.345  31.047  1.00  0.00     0.293 HD
ENDBRANCH   6  12
TORSDOF 3
ENDMDL
MODEL 3
REMARK VINA RESULT:    -3.218      1.478      5.720
REMARK INTER + INTRA:          -3.836
REMARK INTER:                  -3.701
REMARK INTRA:                  -0.135
REMARK UNBOUND:                -0.147
REMARK SMILES O=C([O-])C=Cc1ccc(O)cc1
REMARK SMILES IDX 6 1 7 2 12 3 8 4 11 5 9 6 5 7 4 8 2 9 1 10 3 11 10 12
REMARK H PARENT 10 13
REMARK Flexibility Score: inf
ROOT
ATOM      1  C   UNL     1      14.038 -12.982  29.201  1.00  0.00    -0.025 A 
ATOM      2  C   UNL     1      12.681 -12.830  29.535  1.00  0.00     0.012 A 
ATOM      3  C   UNL     1      14.667 -11.975  28.440  1.00  0.00     0.012 A 
ATOM      4  C   UNL     1      11.975 -11.688  29.143  1.00  0.00     0.047 A 
ATOM      5  C   UNL     1      13.958 -10.836  28.050  1.00  0.00     0.047 A 
ATOM      6  C   UNL     1      12.613 -10.687  28.401  1.00  0.00     0.115 A 
ENDROOT
BRANCH   1   7
ATOM      7  C   UNL     1      14.741 -14.216  29.632  1.00  0.00     0.010 C 
ATOM      8  C   UNL     1      14.750 -15.354  28.923  1.00  0.00     0.025 C 
BRANCH   8   9
ATOM      9  C   UNL     1      15.470 -16.551  29.383  1.00  0.00     0.064 C 
ATOM     10  O   UNL     1      16.284 -17.121  28.612  1.00  0.00    -0.545 OA
ATOM     11  O   UNL     1      15.264 -17.066  30.659  1.00  0.00    -0.545 OA
ENDBRANCH   8   9
ENDBRANCH   1   7
BRANCH   6  12
ATOM     12  O   UNL     1      11.920  -9.545  28.005  1.00  0.00    -0.508 OA
ATOM     13  H   UNL     1      12.278  -8.934  27.279  1.00  0.00     0.293 HD
ENDBRANCH   6  12
TORSDOF 3
ENDMDL
