MODEL 1
REMARK VINA RESULT:    -4.862      0.000      0.000
REMARK INTER + INTRA:         -12.065
REMARK INTER:                  -9.410
REMARK INTRA:                  -2.655
REMARK UNBOUND:                -2.655
REMARK SMILES CCCCCCCCCCCCCCCCCC(=O)[O-]
REMARK SMILES IDX 10 1 11 2 12 3 13 4 14 5 15 6 16 7 17 8 18 9 19 10 20 11
REMARK SMILES IDX 9 12 8 13 7 14 6 15 5 16 4 17 3 18 2 19 1 20
REMARK H PARENT
REMARK Flexibility Score: inf
ROOT
ATOM      1  C   UNL     1      20.988  22.443   6.892  1.00  0.00     0.000 C 
ENDROOT
BRANCH   1   2
ATOM      2  C   UNL     1      19.656  22.610   6.141  1.00  0.00     0.000 C 
BRANCH   2   3
ATOM      3  C   UNL     1      18.713  21.410   6.336  1.00  0.00     0.000 C 
BRANCH   3   4
ATOM      4  C   UNL     1      19.365  20.257   7.122  1.00  0.00     0.000 C 
BRANCH   4   5
ATOM      5  C   UNL     1      19.618  18.975   6.310  1.00  0.00     0.000 C 
BRANCH   5   6
ATOM      6  C   UNL     1      19.925  19.256   4.828  1.00  0.00     0.000 C 
BRANCH   6   7
ATOM      7  C   UNL     1      21.360  18.864   4.434  1.00  0.00     0.006 C 
BRANCH   7   8
ATOM      8  C   UNL     1      22.441  19.822   4.962  1.00  0.00     0.053 C 
BRANCH   8   9
ATOM      9  C   UNL     1      23.298  19.179   6.009  1.00  0.00     0.041 C 
ATOM     10  O   UNL     1      24.107  18.267   5.694  1.00  0.00    -0.550 OA
ATOM     11  O   UNL     1      23.228  19.611   7.327  1.00  0.00    -0.550 OA
ENDBRANCH   8   9
ENDBRANCH   7   8
ENDBRANCH   6   7
ENDBRANCH   5   6
ENDBRANCH   4   5
ENDBRANCH   3   4
ENDBRANCH   2   3
ENDBRANCH   1   2
BRANCH   1  12
ATOM     12  C   UNL     1      21.173  23.482   8.012  1.00  0.00     0.000 C 
BRANCH  12  13
ATOM     13  C   UNL     1      21.536  22.829   9.363  1.00  0.00    -0.000 C 
BRANCH  13  14
ATOM     14  C   UNL     1      20.486  23.061  10.467  1.00  0.00    -0.000 C 
BRANCH  14  15
ATOM     15  C   UNL     1      19.052  22.625  10.108  1.00  0.00    -0.000 C 
BRANCH  15  16
ATOM     16  C   UNL     1      17.983  23.728  10.232  1.00  0.00    -0.000 C 
BRANCH  16  17
ATOM     17  C   UNL     1      17.179  23.930   8.937  1.00  0.00    -0.000 C 
BRANCH  17  18
ATOM     18  C   UNL     1      17.785  25.006   8.017  1.00  0.00    -0.000 C 
BRANCH  18  19
ATOM     19  C   UNL     1      18.625  26.079   8.733  1.00  0.00    -0.003 C 
ATOM     20  C   UNL     1      17.923  27.433   8.816  1.00  0.00     0.004 C 
ENDBRANCH  18  19
ENDBRANCH  17  18
ENDBRANCH  16  17
ENDBRANCH  15  16
ENDBRANCH  14  15
ENDBRANCH  13  14
ENDBRANCH  12  13
ENDBRANCH   1  12
TORSDOF 16
ENDMDL
MODEL 2
REMARK VINA RESULT:    -4.822      1.636      3.605
REMARK INTER + INTRA:         -11.987
REMARK INTER:                  -9.602
REMARK INTRA:                  -2.385
REMARK UNBOUND:                -2.655
REMARK SMILES CCCCCCCCCCCCCCCCCC(=O)[O-]
REMARK SMILES IDX 10 1 11 2 12 3 13 4 14 5 15 6 16 7 17 8 18 9 19 10 20 11
REMARK SMILES IDX 9 12 8 13 7 14 6 15 5 16 4 17 3 18 2 19 1 20
REMARK H PARENT
REMARK Flexibility Score: inf
ROOT
ATOM      1  C   UNL     1      20.614  23.183  10.481  1.00  0.00     0.000 C 
ENDROOT
BRANCH   1   2
ATOM      2  C   UNL     1      21.750  22.924   9.478  1.00  0.00     0.000 C 
BRANCH   2   3
ATOM      3  C   UNL     1      21.417  23.434   8.064  1.00  0.00     0.000 C 
BRANCH   3   4
ATOM      4  C   UNL     1      21.537  22.339   6.988  1.00  0.00     0.000 C 
BRANCH   4   5
ATOM      5  C   UNL     1      21.462  20.895   7.516  1.00  0.00     0.000 C 
BRANCH   5   6
ATOM      6  C   UNL     1      22.738  20.085   7.226  1.00  0.00     0.000 C 
BRANCH   6   7
ATOM      7  C   UNL     1      22.803  19.579   5.773  1.00  0.00     0.006 C 
BRANCH   7   8
ATOM      8  C   UNL     1      24.179  19.030   5.360  1.00  0.00     0.053 C 
BRANCH   8   9
ATOM      9  C   UNL     1      24.173  17.537   5.235  1.00  0.00     0.041 C 
ATOM     10  O   UNL     1      25.236  16.918   4.968  1.00  0.00    -0.550 OA
ATOM     11  O   UNL     1      22.999  16.826   5.446  1.00  0.00    -0.550 OA
ENDBRANCH   8   9
ENDBRANCH   7   8
ENDBRANCH   6   7
ENDBRANCH   5   6
ENDBRANCH   4   5
ENDBRANCH   3   4
ENDBRANCH   2   3
ENDBRANCH   1   2
BRANCH   1  12
ATOM     12  C   UNL     1      19.296  22.497  10.079  1.00  0.00     0.000 C 
BRANCH  12  13
ATOM     13  C   UNL     1      18.087  23.453  10.169  1.00  0.00    -0.000 C 
BRANCH  13  14
ATOM     14  C   UNL     1      18.416  24.908   9.785  1.00  0.00    -0.000 C 
BRANCH  14  15
ATOM     15  C   UNL     1      18.260  25.242   8.289  1.00  0.00    -0.000 C 
BRANCH  15  16
ATOM     16  C   UNL     1      17.289  24.331   7.513  1.00  0.00    -0.000 C 
BRANCH  16  17
ATOM     17  C   UNL     1      17.988  23.503   6.422  1.00  0.00    -0.000 C 
BRANCH  17  18
ATOM     18  C   UNL     1      17.861  21.985   6.648  1.00  0.00    -0.000 C 
BRANCH  18  19
ATOM     19  C   UNL     1      18.081  21.118   5.395  1.00  0.00    -0.003 C 
ATOM     20  C   UNL     1      19.238  21.607   4.525  1.00  0.00     0.004 C 
ENDBRANCH  18  19
ENDBRANCH  17  18
ENDBRANCH  16  17
ENDBRANCH  15  16
ENDBRANCH  14  15
ENDBRANCH  13  14
ENDBRANCH  12  13
ENDBRANCH   1  12
TORSDOF 16
ENDMDL
MODEL 3
REMARK VINA RESULT:    -4.813      1.102      2.139
REMARK INTER + INTRA:         -11.971
REMARK INTER:                 -10.093
REMARK INTRA:                  -1.878
REMARK UNBOUND:                -2.655
REMARK SMILES CCCCCCCCCCCCCCCCCC(=O)[O-]
REMARK SMILES IDX 10 1 11 2 12 3 13 4 14 5 15 6 16 7 17 8 18 9 19 10 20 11
REMARK SMILES IDX 9 12 8 13 7 14 6 15 5 16 4 17 3 18 2 19 1 20
REMARK H PARENT
REMARK Flexibility Score: inf
ROOT
ATOM      1  C   UNL     1      21.177  23.274   9.409  1.00  0.00     0.000 C 
ENDROOT
BRANCH   1   2
ATOM      2  C   UNL     1      20.844  22.243   8.317  1.00  0.00     0.000 C 
BRANCH   2   3
ATOM      3  C   UNL     1      20.169  22.879   7.090  1.00  0.00     0.000 C 
BRANCH   3   4
ATOM      4  C   UNL     1      19.299  21.884   6.301  1.00  0.00     0.000 C 
BRANCH   4   5
ATOM      5  C   UNL     1      19.382  22.016   4.770  1.00  0.00     0.000 C 
BRANCH   5   6
ATOM      6  C   UNL     1      20.326  20.982   4.130  1.00  0.00     0.000 C 
BRANCH   6   7
ATOM      7  C   UNL     1      21.658  20.843   4.890  1.00  0.00     0.006 C 
BRANCH   7   8
ATOM      8  C   UNL     1      21.999  19.400   5.299  1.00  0.00     0.053 C 
BRANCH   8   9
ATOM      9  C   UNL     1      23.232  19.335   6.148  1.00  0.00     0.041 C 
ATOM     10  O   UNL     1      23.207  19.753   7.336  1.00  0.00    -0.550 OA
ATOM     11  O   UNL     1      24.399  18.781   5.639  1.00  0.00    -0.550 OA
ENDBRANCH   8   9
ENDBRANCH   7   8
ENDBRANCH   6   7
ENDBRANCH   5   6
ENDBRANCH   4   5
ENDBRANCH   3   4
ENDBRANCH   2   3
ENDBRANCH   1   2
BRANCH   1  12
ATOM     12  C   UNL     1      20.101  23.346  10.507  1.00  0.00     0.000 C 
BRANCH  12  13
ATOM     13  C   UNL     1      19.267  22.049  10.596  1.00  0.00    -0.000 C 
BRANCH  13  14
ATOM     14  C   UNL     1      17.784  22.287  10.939  1.00  0.00    -0.000 C 
BRANCH  14  15
ATOM     15  C   UNL     1      17.163  23.553  10.319  1.00  0.00    -0.000 C 
BRANCH  15  16
ATOM     16  C   UNL     1      17.051  23.541   8.782  1.00  0.00    -0.000 C 
BRANCH  16  17
ATOM     17  C   UNL     1      17.172  24.942   8.162  1.00  0.00    -0.000 C 
BRANCH  17  18
ATOM     18  C   UNL     1      17.016  26.072   9.198  1.00  0.00    -0.000 C 
BRANCH  18  19
ATOM     19  C   UNL     1      17.757  27.377   8.856  1.00  0.00    -0.003 C 
ATOM     20  C   UNL     1      19.276  27.213   8.829  1.00  0.00     0.004 C 
ENDBRANCH  18  19
ENDBRANCH  17  18
ENDBRANCH  16  17
ENDBRANCH  15  16
ENDBRANCH  14  15
ENDBRANCH  13  14
ENDBRANCH  12  13
ENDBRANCH   1  12
TORSDOF 16
ENDMDL
MODEL 4
REMARK VINA RESULT:    -4.799      3.436      7.277
REMARK INTER + INTRA:         -11.943
REMARK INTER:                 -10.141
REMARK INTRA:                  -1.802
REMARK UNBOUND:                -2.655
REMARK SMILES CCCCCCCCCCCCCCCCCC(=O)[O-]
REMARK SMILES IDX 10 1 11 2 12 3 13 4 14 5 15 6 16 7 17 8 18 9 19 10 20 11
REMARK SMILES IDX 9 12 8 13 7 14 6 15 5 16 4 17 3 18 2 19 1 20
REMARK H PARENT
REMARK Flexibility Score: inf
ROOT
ATOM      1  C   UNL     1      21.239  22.760   9.660  1.00  0.00     0.000 C 
ENDROOT
BRANCH   1   2
ATOM      2  C   UNL     1      19.838  22.957  10.261  1.00  0.00     0.000 C 
BRANCH   2   3
ATOM      3  C   UNL     1      18.889  21.788   9.944  1.00  0.00     0.000 C 
BRANCH   3   4
ATOM      4  C   UNL     1      17.434  22.240   9.720  1.00  0.00     0.000 C 
BRANCH   4   5
ATOM      5  C   UNL     1      16.951  22.183   8.260  1.00  0.00     0.000 C 
BRANCH   5   6
ATOM      6  C   UNL     1      16.876  23.571   7.599  1.00  0.00     0.000 C 
BRANCH   6   7
ATOM      7  C   UNL     1      17.078  24.719   8.604  1.00  0.00     0.006 C 
BRANCH   7   8
ATOM      8  C   UNL     1      18.371  25.523   8.388  1.00  0.00     0.053 C 
BRANCH   8   9
ATOM      9  C   UNL     1      18.259  26.920   8.916  1.00  0.00     0.041 C 
ATOM     10  O   UNL     1      17.128  27.416   9.163  1.00  0.00    -0.550 OA
ATOM     11  O   UNL     1      19.405  27.662   9.169  1.00  0.00    -0.550 OA
ENDBRANCH   8   9
ENDBRANCH   7   8
ENDBRANCH   6   7
ENDBRANCH   5   6
ENDBRANCH   4   5
ENDBRANCH   3   4
ENDBRANCH   2   3
ENDBRANCH   1   2
BRANCH   1  12
ATOM     12  C   UNL     1      21.363  23.336   8.239  1.00  0.00     0.000 C 
BRANCH  12  13
ATOM     13  C   UNL     1      21.306  22.238   7.154  1.00  0.00    -0.000 C 
BRANCH  13  14
ATOM     14  C   UNL     1      20.092  22.359   6.213  1.00  0.00    -0.000 C 
BRANCH  14  15
ATOM     15  C   UNL     1      20.195  21.549   4.906  1.00  0.00    -0.000 C 
BRANCH  15  16
ATOM     16  C   UNL     1      21.629  21.202   4.463  1.00  0.00    -0.000 C 
BRANCH  16  17
ATOM     17  C   UNL     1      21.923  19.693   4.517  1.00  0.00    -0.000 C 
BRANCH  17  18
ATOM     18  C   UNL     1      23.121  19.347   5.421  1.00  0.00    -0.000 C 
BRANCH  18  19
ATOM     19  C   UNL     1      24.352  18.789   4.685  1.00  0.00    -0.003 C 
ATOM     20  C   UNL     1      24.626  17.320   5.006  1.00  0.00     0.004 C 
ENDBRANCH  18  19
ENDBRANCH  17  18
ENDBRANCH  16  17
ENDBRANCH  15  16
ENDBRANCH  14  15
ENDBRANCH  13  14
ENDBRANCH  12  13
ENDBRANCH   1  12
TORSDOF 16
ENDMDL
MODEL 5
REMARK VINA RESULT:    -4.772      1.445      2.694
REMARK INTER + INTRA:         -11.891
REMARK INTER:                  -9.584
REMARK INTRA:                  -2.307
REMARK UNBOUND:                -2.655
REMARK SMILES CCCCCCCCCCCCCCCCCC(=O)[O-]
REMARK SMILES IDX 10 1 11 2 12 3 13 4 14 5 15 6 16 7 17 8 18 9 19 10 20 11
REMARK SMILES IDX 9 12 8 13 7 14 6 15 5 16 4 17 3 18 2 19 1 20
REMARK H PARENT
REMARK Flexibility Score: inf
ROOT
ATOM      1  C   UNL     1      20.451  23.003  10.408  1.00  0.00     0.000 C 
ENDROOT
BRANCH   1   2
ATOM      2  C   UNL     1      21.233  22.069   9.470  1.00  0.00     0.000 C 
BRANCH   2   3
ATOM      3  C   UNL     1      21.693  22.774   8.183  1.00  0.00     0.000 C 
BRANCH   3   4
ATOM      4  C   UNL     1      20.539  23.038   7.198  1.00  0.00     0.000 C 
BRANCH   4   5
ATOM      5  C   UNL     1      20.361  21.974   6.101  1.00  0.00     0.000 C 
BRANCH   5   6
ATOM      6  C   UNL     1      21.700  21.440   5.562  1.00  0.00     0.000 C 
BRANCH   6   7
ATOM      7  C   UNL     1      21.790  19.903   5.610  1.00  0.00     0.006 C 
BRANCH   7   8
ATOM      8  C   UNL     1      23.102  19.369   6.207  1.00  0.00     0.053 C 
BRANCH   8   9
ATOM      9  C   UNL     1      23.593  18.152   5.485  1.00  0.00     0.041 C 
ATOM     10  O   UNL     1      22.774  17.345   4.972  1.00  0.00    -0.550 OA
ATOM     11  O   UNL     1      24.956  17.926   5.350  1.00  0.00    -0.550 OA
ENDBRANCH   8   9
ENDBRANCH   7   8
ENDBRANCH   6   7
ENDBRANCH   5   6
ENDBRANCH   4   5
ENDBRANCH   3   4
ENDBRANCH   2   3
ENDBRANCH   1   2
BRANCH   1  12
ATOM     12  C   UNL     1      19.087  22.423  10.825  1.00  0.00     0.000 C 
BRANCH  12  13
ATOM     13  C   UNL     1      18.660  21.235   9.936  1.00  0.00    -0.000 C 
BRANCH  13  14
ATOM     14  C   UNL     1      17.479  21.554   9.000  1.00  0.00    -0.000 C 
BRANCH  14  15
ATOM     15  C   UNL     1      17.036  23.029   8.983  1.00  0.00    -0.000 C 
BRANCH  15  16
ATOM     16  C   UNL     1      16.877  23.649   7.581  1.00  0.00    -0.000 C 
BRANCH  16  17
ATOM     17  C   UNL     1      17.535  25.034   7.462  1.00  0.00    -0.000 C 
BRANCH  17  18
ATOM     18  C   UNL     1      18.332  25.430   8.719  1.00  0.00    -0.000 C 
BRANCH  18  19
ATOM     19  C   UNL     1      18.474  26.945   8.951  1.00  0.00    -0.003 C 
ATOM     20  C   UNL     1      17.130  27.654   9.114  1.00  0.00     0.004 C 
ENDBRANCH  18  19
ENDBRANCH  17  18
ENDBRANCH  16  17
ENDBRANCH  15  16
ENDBRANCH  14  15
ENDBRANCH  13  14
ENDBRANCH  12  13
ENDBRANCH   1  12
TORSDOF 16
ENDMDL
MODEL 6
REMARK VINA RESULT:    -4.766      1.499      3.162
REMARK INTER + INTRA:         -11.880
REMARK INTER:                  -9.179
REMARK INTRA:                  -2.701
REMARK UNBOUND:                -2.655
REMARK SMILES CCCCCCCCCCCCCCCCCC(=O)[O-]
REMARK SMILES IDX 10 1 11 2 12 3 13 4 14 5 15 6 16 7 17 8 18 9 19 10 20 11
REMARK SMILES IDX 9 12 8 13 7 14 6 15 5 16 4 17 3 18 2 19 1 20
REMARK H PARENT
REMARK Flexibility Score: inf
ROOT
ATOM      1  C   UNL     1      18.398  20.884   8.609  1.00  0.00     0.000 C 
ENDROOT
BRANCH   1   2
ATOM      2  C   UNL     1      17.437  20.888   7.409  1.00  0.00     0.000 C 
BRANCH   2   3
ATOM      3  C   UNL     1      17.204  22.299   6.843  1.00  0.00     0.000 C 
BRANCH   3   4
ATOM      4  C   UNL     1      18.437  22.864   6.113  1.00  0.00     0.000 C 
BRANCH   4   5
ATOM      5  C   UNL     1      19.021  21.953   5.019  1.00  0.00     0.000 C 
BRANCH   5   6
ATOM      6  C   UNL     1      20.517  21.657   5.221  1.00  0.00     0.000 C 
BRANCH   6   7
ATOM      7  C   UNL     1      20.918  20.256   4.726  1.00  0.00     0.006 C 
BRANCH   7   8
ATOM      8  C   UNL     1      21.637  19.398   5.781  1.00  0.00     0.053 C 
BRANCH   8   9
ATOM      9  C   UNL     1      23.107  19.295   5.514  1.00  0.00     0.041 C 
ATOM     10  O   UNL     1      23.918  19.173   6.469  1.00  0.00    -0.550 OA
ATOM     11  O   UNL     1      23.578  19.298   4.207  1.00  0.00    -0.550 OA
ENDBRANCH   8   9
ENDBRANCH   7   8
ENDBRANCH   6   7
ENDBRANCH   5   6
ENDBRANCH   4   5
ENDBRANCH   3   4
ENDBRANCH   2   3
ENDBRANCH   1   2
BRANCH   1  12
ATOM     12  C   UNL     1      17.674  20.677   9.951  1.00  0.00     0.000 C 
BRANCH  12  13
ATOM     13  C   UNL     1      18.179  21.642  11.045  1.00  0.00    -0.000 C 
BRANCH  13  14
ATOM     14  C   UNL     1      17.220  22.814  11.330  1.00  0.00    -0.000 C 
BRANCH  14  15
ATOM     15  C   UNL     1      17.115  23.863  10.206  1.00  0.00    -0.000 C 
BRANCH  15  16
ATOM     16  C   UNL     1      18.215  24.943  10.215  1.00  0.00    -0.000 C 
BRANCH  16  17
ATOM     17  C   UNL     1      19.245  24.757   9.089  1.00  0.00    -0.000 C 
BRANCH  17  18
ATOM     18  C   UNL     1      20.424  23.854   9.498  1.00  0.00    -0.000 C 
BRANCH  18  19
ATOM     19  C   UNL     1      21.273  23.321   8.330  1.00  0.00    -0.003 C 
ATOM     20  C   UNL     1      21.944  21.984   8.639  1.00  0.00     0.004 C 
ENDBRANCH  18  19
ENDBRANCH  17  18
ENDBRANCH  16  17
ENDBRANCH  15  16
ENDBRANCH  14  15
ENDBRANCH  13  14
ENDBRANCH  12  13
ENDBRANCH   1  12
TORSDOF 16
ENDMDL
MODEL 7
REMARK VINA RESULT:    -4.688      2.158      2.987
REMARK INTER + INTRA:         -11.729
REMARK INTER:                  -9.570
REMARK INTRA:                  -2.160
REMARK UNBOUND:                -2.655
REMARK SMILES CCCCCCCCCCCCCCCCCC(=O)[O-]
REMARK SMILES IDX 10 1 11 2 12 3 13 4 14 5 15 6 16 7 17 8 18 9 19 10 20 11
REMARK SMILES IDX 9 12 8 13 7 14 6 15 5 16 4 17 3 18 2 19 1 20
REMARK H PARENT
REMARK Flexibility Score: inf
ROOT
ATOM      1  C   UNL     1      21.335  23.095   7.844  1.00  0.00     0.000 C 
ENDROOT
BRANCH   1   2
ATOM      2  C   UNL     1      21.363  21.857   6.932  1.00  0.00     0.000 C 
BRANCH   2   3
ATOM      3  C   UNL     1      20.390  21.975   5.746  1.00  0.00     0.000 C 
BRANCH   3   4
ATOM      4  C   UNL     1      19.120  22.775   6.090  1.00  0.00     0.000 C 
BRANCH   4   5
ATOM      5  C   UNL     1      17.861  21.926   6.336  1.00  0.00     0.000 C 
BRANCH   5   6
ATOM      6  C   UNL     1      17.672  20.817   5.286  1.00  0.00     0.000 C 
BRANCH   6   7
ATOM      7  C   UNL     1      17.420  19.436   5.918  1.00  0.00     0.006 C 
BRANCH   7   8
ATOM      8  C   UNL     1      18.643  18.842   6.638  1.00  0.00     0.053 C 
BRANCH   8   9
ATOM      9  C   UNL     1      18.520  17.361   6.826  1.00  0.00     0.041 C 
ATOM     10  O   UNL     1      17.384  16.821   6.887  1.00  0.00    -0.550 OA
ATOM     11  O   UNL     1      19.661  16.573   6.899  1.00  0.00    -0.550 OA
ENDBRANCH   8   9
ENDBRANCH   7   8
ENDBRANCH   6   7
ENDBRANCH   5   6
ENDBRANCH   4   5
ENDBRANCH   3   4
ENDBRANCH   2   3
ENDBRANCH   1   2
BRANCH   1  12
ATOM     12  C   UNL     1      21.694  22.766   9.304  1.00  0.00     0.000 C 
BRANCH  12  13
ATOM     13  C   UNL     1      20.678  23.357  10.305  1.00  0.00    -0.000 C 
BRANCH  13  14
ATOM     14  C   UNL     1      19.520  22.401  10.651  1.00  0.00    -0.000 C 
BRANCH  14  15
ATOM     15  C   UNL     1      18.239  22.595   9.816  1.00  0.00    -0.000 C 
BRANCH  15  16
ATOM     16  C   UNL     1      17.266  23.663  10.351  1.00  0.00    -0.000 C 
BRANCH  16  17
ATOM     17  C   UNL     1      16.924  24.738   9.305  1.00  0.00    -0.000 C 
BRANCH  17  18
ATOM     18  C   UNL     1      18.136  25.144   8.445  1.00  0.00    -0.000 C 
BRANCH  18  19
ATOM     19  C   UNL     1      18.723  26.531   8.759  1.00  0.00    -0.003 C 
ATOM     20  C   UNL     1      17.661  27.627   8.838  1.00  0.00     0.004 C 
ENDBRANCH  18  19
ENDBRANCH  17  18
ENDBRANCH  16  17
ENDBRANCH  15  16
ENDBRANCH  14  15
ENDBRANCH  13  14
ENDBRANCH  12  13
ENDBRANCH   1  12
TORSDOF 16
ENDMDL
MODEL 8
REMARK VINA RESULT:    -4.668      3.123      6.630
REMARK INTER + INTRA:         -11.690
REMARK INTER:                  -8.824
REMARK INTRA:                  -2.866
REMARK UNBOUND:                -2.655
REMARK SMILES CCCCCCCCCCCCCCCCCC(=O)[O-]
REMARK SMILES IDX 10 1 11 2 12 3 13 4 14 5 15 6 16 7 17 8 18 9 19 10 20 11
REMARK SMILES IDX 9 12 8 13 7 14 6 15 5 16 4 17 3 18 2 19 1 20
REMARK H PARENT
REMARK Flexibility Score: inf
ROOT
ATOM      1  C   UNL     1      20.991  21.956   8.570  1.00  0.00     0.000 C 
ENDROOT
BRANCH   1   2
ATOM      2  C   UNL     1      20.913  22.814   9.844  1.00  0.00     0.000 C 
BRANCH   2   3
ATOM      3  C   UNL     1      19.554  22.694  10.555  1.00  0.00     0.000 C 
BRANCH   3   4
ATOM      4  C   UNL     1      18.658  21.595   9.955  1.00  0.00     0.000 C 
BRANCH   4   5
ATOM      5  C   UNL     1      17.368  22.098   9.284  1.00  0.00     0.000 C 
BRANCH   5   6
ATOM      6  C   UNL     1      17.052  23.566   9.619  1.00  0.00     0.000 C 
BRANCH   6   7
ATOM      7  C   UNL     1      17.065  24.476   8.376  1.00  0.00     0.006 C 
BRANCH   7   8
ATOM      8  C   UNL     1      18.375  25.257   8.183  1.00  0.00     0.053 C 
BRANCH   8   9
ATOM      9  C   UNL     1      18.517  26.370   9.176  1.00  0.00     0.041 C 
ATOM     10  O   UNL     1      19.164  26.193  10.241  1.00  0.00    -0.550 OA
ATOM     11  O   UNL     1      17.962  27.615   8.908  1.00  0.00    -0.550 OA
ENDBRANCH   8   9
ENDBRANCH   7   8
ENDBRANCH   6   7
ENDBRANCH   5   6
ENDBRANCH   4   5
ENDBRANCH   3   4
ENDBRANCH   2   3
ENDBRANCH   1   2
BRANCH   1  12
ATOM     12  C   UNL     1      21.051  22.803   7.286  1.00  0.00     0.000 C 
BRANCH  12  13
ATOM     13  C   UNL     1      19.880  22.496   6.327  1.00  0.00    -0.000 C 
BRANCH  13  14
ATOM     14  C   UNL     1      20.301  21.729   5.059  1.00  0.00    -0.000 C 
BRANCH  14  15
ATOM     15  C   UNL     1      21.638  20.971   5.166  1.00  0.00    -0.000 C 
BRANCH  15  16
ATOM     16  C   UNL     1      21.514  19.469   5.487  1.00  0.00    -0.000 C 
BRANCH  16  17
ATOM     17  C   UNL     1      20.156  18.879   5.070  1.00  0.00    -0.000 C 
BRANCH  17  18
ATOM     18  C   UNL     1      19.407  18.214   6.241  1.00  0.00    -0.000 C 
BRANCH  18  19
ATOM     19  C   UNL     1      18.596  19.177   7.127  1.00  0.00    -0.003 C 
ATOM     20  C   UNL     1      17.343  19.714   6.438  1.00  0.00     0.004 C 
ENDBRANCH  18  19
ENDBRANCH  17  18
ENDBRANCH  16  17
ENDBRANCH  15  16
ENDBRANCH  14  15
ENDBRANCH  13  14
ENDBRANCH  12  13
ENDBRANCH   1  12
TORSDOF 16
ENDMDL
MODEL 9
REMARK VINA RESULT:    -4.652      2.237      3.308
REMARK INTER + INTRA:         -11.660
REMARK INTER:                  -9.493
REMARK INTRA:                  -2.167
REMARK UNBOUND:                -2.655
REMARK SMILES CCCCCCCCCCCCCCCCCC(=O)[O-]
REMARK SMILES IDX 10 1 11 2 12 3 13 4 14 5 15 6 16 7 17 8 18 9 19 10 20 11
REMARK SMILES IDX 9 12 8 13 7 14 6 15 5 16 4 17 3 18 2 19 1 20
REMARK H PARENT
REMARK Flexibility Score: inf
ROOT
ATOM      1  C   UNL     1      20.370  22.052   9.565  1.00  0.00     0.000 C 
ENDROOT
BRANCH   1   2
ATOM      2  C   UNL     1      21.169  22.965   8.622  1.00  0.00     0.000 C 
BRANCH   2   3
ATOM      3  C   UNL     1      20.603  22.977   7.191  1.00  0.00     0.000 C 
BRANCH   3   4
ATOM      4  C   UNL     1      21.360  22.033   6.239  1.00  0.00     0.000 C 
BRANCH   4   5
ATOM      5  C   UNL     1      20.501  21.394   5.134  1.00  0.00     0.000 C 
BRANCH   5   6
ATOM      6  C   UNL     1      19.091  22.004   5.043  1.00  0.00     0.000 C 
BRANCH   6   7
ATOM      7  C   UNL     1      17.979  20.973   5.314  1.00  0.00     0.006 C 
BRANCH   7   8
ATOM      8  C   UNL     1      18.189  19.623   4.610  1.00  0.00     0.053 C 
BRANCH   8   9
ATOM      9  C   UNL     1      18.174  18.478   5.576  1.00  0.00     0.041 C 
ATOM     10  O   UNL     1      17.558  17.417   5.294  1.00  0.00    -0.550 OA
ATOM     11  O   UNL     1      18.870  18.570   6.775  1.00  0.00    -0.550 OA
ENDBRANCH   8   9
ENDBRANCH   7   8
ENDBRANCH   6   7
ENDBRANCH   5   6
ENDBRANCH   4   5
ENDBRANCH   3   4
ENDBRANCH   2   3
ENDBRANCH   1   2
BRANCH   1  12
ATOM     12  C   UNL     1      19.206  21.337   8.857  1.00  0.00     0.000 C 
BRANCH  12  13
ATOM     13  C   UNL     1      17.968  21.188   9.768  1.00  0.00    -0.000 C 
BRANCH  13  14
ATOM     14  C   UNL     1      18.118  21.879  11.136  1.00  0.00    -0.000 C 
BRANCH  14  15
ATOM     15  C   UNL     1      17.113  23.014  11.410  1.00  0.00    -0.000 C 
BRANCH  15  16
ATOM     16  C   UNL     1      16.960  24.041  10.271  1.00  0.00    -0.000 C 
BRANCH  16  17
ATOM     17  C   UNL     1      18.119  25.050  10.217  1.00  0.00    -0.000 C 
BRANCH  17  18
ATOM     18  C   UNL     1      18.461  25.493   8.781  1.00  0.00    -0.000 C 
BRANCH  18  19
ATOM     19  C   UNL     1      18.429  27.014   8.543  1.00  0.00    -0.003 C 
ATOM     20  C   UNL     1      17.149  27.673   9.056  1.00  0.00     0.004 C 
ENDBRANCH  18  19
ENDBRANCH  17  18
ENDBRANCH  16  17
ENDBRANCH  15  16
ENDBRANCH  14  15
ENDBRANCH  13  14
ENDBRANCH  12  13
ENDBRANCH   1  12
TORSDOF 16
ENDMDL
