MODEL 1
REMARK VINA RESULT:    -3.134      0.000      0.000
REMARK INTER + INTRA:          -6.508
REMARK INTER:                  -4.966
REMARK INTRA:                  -1.542
REMARK UNBOUND:                -1.542
REMARK SMILES CCCCCCCCCCCC(=O)[O-]
REMARK SMILES IDX 7 1 8 2 9 3 10 4 11 5 12 6 13 7 14 8 6 9 5 10 4 11 3 12 2 13
REMARK SMILES IDX 1 14
REMARK H PARENT
REMARK Flexibility Score: inf
ROOT
ATOM      1  C   UNL     1       3.594 105.163 179.484  1.00  0.00     0.000 C 
ENDROOT
BRANCH   1   2
ATOM      2  C   UNL     1       4.066 106.327 180.368  1.00  0.00     0.000 C 
BRANCH   2   3
ATOM      3  C   UNL     1       3.966 107.693 179.664  1.00  0.00     0.000 C 
BRANCH   3   4
ATOM      4  C   UNL     1       3.375 108.828 180.524  1.00  0.00     0.006 C 
BRANCH   4   5
ATOM      5  C   UNL     1       2.202 108.405 181.423  1.00  0.00     0.053 C 
BRANCH   5   6
ATOM      6  C   UNL     1       2.462 108.709 182.866  1.00  0.00     0.041 C 
ATOM      7  O   UNL     1       3.603 108.506 183.360  1.00  0.00    -0.550 OA
ATOM      8  O   UNL     1       1.437 109.182 183.674  1.00  0.00    -0.550 OA
ENDBRANCH   5   6
ENDBRANCH   4   5
ENDBRANCH   3   4
ENDBRANCH   2   3
ENDBRANCH   1   2
BRANCH   1   9
ATOM      9  C   UNL     1       2.074 105.201 179.292  1.00  0.00     0.000 C 
BRANCH   9  10
ATOM     10  C   UNL     1       1.704 105.143 177.805  1.00  0.00    -0.000 C 
BRANCH  10  11
ATOM     11  C   UNL     1       0.609 106.166 177.470  1.00  0.00    -0.000 C 
BRANCH  11  12
ATOM     12  C   UNL     1       0.078 106.895 178.714  1.00  0.00    -0.000 C 
BRANCH  12  13
ATOM     13  C   UNL     1       0.016 108.417 178.527  1.00  0.00    -0.003 C 
ATOM     14  C   UNL     1       1.068 108.893 177.529  1.00  0.00     0.004 C 
ENDBRANCH  12  13
ENDBRANCH  11  12
ENDBRANCH  10  11
ENDBRANCH   9  10
ENDBRANCH   1   9
TORSDOF 10
ENDMDL
MODEL 2
REMARK VINA RESULT:    -3.038      1.216      1.947
REMARK INTER + INTRA:          -6.357
REMARK INTER:                  -4.828
REMARK INTRA:                  -1.529
REMARK UNBOUND:                -1.542
REMARK SMILES CCCCCCCCCCCC(=O)[O-]
REMARK SMILES IDX 7 1 8 2 9 3 10 4 11 5 12 6 13 7 14 8 6 9 5 10 4 11 3 12 2 13
REMARK SMILES IDX 1 14
REMARK H PARENT
REMARK Flexibility Score: inf
ROOT
ATOM      1  C   UNL     1       3.302 105.535 177.590  1.00  0.00     0.000 C 
ENDROOT
BRANCH   1   2
ATOM      2  C   UNL     1       3.031 104.495 178.687  1.00  0.00     0.000 C 
BRANCH   2   3
ATOM      3  C   UNL     1       2.902 105.121 180.088  1.00  0.00     0.000 C 
BRANCH   3   4
ATOM      4  C   UNL     1       3.617 106.475 180.266  1.00  0.00     0.006 C 
BRANCH   4   5
ATOM      5  C   UNL     1       3.874 106.874 181.728  1.00  0.00     0.053 C 
BRANCH   5   6
ATOM      6  C   UNL     1       3.213 108.172 182.080  1.00  0.00     0.041 C 
ATOM      7  O   UNL     1       2.630 108.305 183.188  1.00  0.00    -0.550 OA
ATOM      8  O   UNL     1       3.210 109.221 181.171  1.00  0.00    -0.550 OA
ENDBRANCH   5   6
ENDBRANCH   4   5
ENDBRANCH   3   4
ENDBRANCH   2   3
ENDBRANCH   1   2
BRANCH   1   9
ATOM      9  C   UNL     1       2.292 105.400 176.444  1.00  0.00     0.000 C 
BRANCH   9  10
ATOM     10  C   UNL     1       0.880 105.137 176.981  1.00  0.00    -0.000 C 
BRANCH  10  11
ATOM     11  C   UNL     1       0.132 106.454 177.230  1.00  0.00    -0.000 C 
BRANCH  11  12
ATOM     12  C   UNL     1      -0.108 106.726 178.724  1.00  0.00    -0.000 C 
BRANCH  12  13
ATOM     13  C   UNL     1       0.513 108.050 179.191  1.00  0.00    -0.003 C 
ATOM     14  C   UNL     1       1.374 108.672 178.096  1.00  0.00     0.004 C 
ENDBRANCH  12  13
ENDBRANCH  11  12
ENDBRANCH  10  11
ENDBRANCH   9  10
ENDBRANCH   1   9
TORSDOF 10
ENDMDL
MODEL 3
REMARK VINA RESULT:    -2.959      1.205      2.073
REMARK INTER + INTRA:          -6.231
REMARK INTER:                  -4.750
REMARK INTRA:                  -1.481
REMARK UNBOUND:                -1.542
REMARK SMILES CCCCCCCCCCCC(=O)[O-]
REMARK SMILES IDX 7 1 8 2 9 3 10 4 11 5 12 6 13 7 14 8 6 9 5 10 4 11 3 12 2 13
REMARK SMILES IDX 1 14
REMARK H PARENT
REMARK Flexibility Score: inf
ROOT
ATOM      1  C   UNL     1       4.852 107.039 178.936  1.00  0.00     0.000 C 
ENDROOT
BRANCH   1   2
ATOM      2  C   UNL     1       4.910 107.938 180.181  1.00  0.00     0.000 C 
BRANCH   2   3
ATOM      3  C   UNL     1       4.925 107.140 181.497  1.00  0.00     0.000 C 
BRANCH   3   4
ATOM      4  C   UNL     1       3.680 107.326 182.388  1.00  0.00     0.006 C 
BRANCH   4   5
ATOM      5  C   UNL     1       2.679 108.373 181.876  1.00  0.00     0.053 C 
BRANCH   5   6
ATOM      6  C   UNL     1       2.459 109.473 182.869  1.00  0.00     0.041 C 
ATOM      7  O   UNL     1       1.437 109.466 183.604  1.00  0.00    -0.550 OA
ATOM      8  O   UNL     1       3.363 110.523 182.957  1.00  0.00    -0.550 OA
ENDBRANCH   5   6
ENDBRANCH   4   5
ENDBRANCH   3   4
ENDBRANCH   2   3
ENDBRANCH   1   2
BRANCH   1   9
ATOM      9  C   UNL     1       4.899 105.558 179.327  1.00  0.00     0.000 C 
BRANCH   9  10
ATOM     10  C   UNL     1       3.685 104.802 178.772  1.00  0.00    -0.000 C 
BRANCH  10  11
ATOM     11  C   UNL     1       2.402 105.204 179.513  1.00  0.00    -0.000 C 
BRANCH  11  12
ATOM     12  C   UNL     1       1.322 105.758 178.570  1.00  0.00    -0.000 C 
BRANCH  12  13
ATOM     13  C   UNL     1       0.668 107.038 179.108  1.00  0.00    -0.003 C 
ATOM     14  C   UNL     1       1.307 108.282 178.497  1.00  0.00     0.004 C 
ENDBRANCH  12  13
ENDBRANCH  11  12
ENDBRANCH  10  11
ENDBRANCH   9  10
ENDBRANCH   1   9
TORSDOF 10
ENDMDL
MODEL 4
REMARK VINA RESULT:    -2.937      3.416      5.140
REMARK INTER + INTRA:          -6.197
REMARK INTER:                  -4.740
REMARK INTRA:                  -1.457
REMARK UNBOUND:                -1.542
REMARK SMILES CCCCCCCCCCCC(=O)[O-]
REMARK SMILES IDX 7 1 8 2 9 3 10 4 11 5 12 6 13 7 14 8 6 9 5 10 4 11 3 12 2 13
REMARK SMILES IDX 1 14
REMARK H PARENT
REMARK Flexibility Score: inf
ROOT
ATOM      1  C   UNL     1       6.482 108.888 183.937  1.00  0.00     0.000 C 
ENDROOT
BRANCH   1   2
ATOM      2  C   UNL     1       5.989 110.340 184.036  1.00  0.00     0.000 C 
BRANCH   2   3
ATOM      3  C   UNL     1       5.627 110.945 182.667  1.00  0.00     0.000 C 
BRANCH   3   4
ATOM      4  C   UNL     1       4.203 111.527 182.567  1.00  0.00     0.006 C 
BRANCH   4   5
ATOM      5  C   UNL     1       3.442 111.588 183.900  1.00  0.00     0.053 C 
BRANCH   5   6
ATOM      6  C   UNL     1       3.468 112.961 184.499  1.00  0.00     0.041 C 
ATOM      7  O   UNL     1       2.391 113.574 184.723  1.00  0.00    -0.550 OA
ATOM      8  O   UNL     1       4.680 113.578 184.776  1.00  0.00    -0.550 OA
ENDBRANCH   5   6
ENDBRANCH   4   5
ENDBRANCH   3   4
ENDBRANCH   2   3
ENDBRANCH   1   2
BRANCH   1   9
ATOM      9  C   UNL     1       5.303 107.911 183.877  1.00  0.00     0.000 C 
BRANCH   9  10
ATOM     10  C   UNL     1       5.424 106.973 182.670  1.00  0.00    -0.000 C 
BRANCH  10  11
ATOM     11  C   UNL     1       4.064 106.779 181.985  1.00  0.00    -0.000 C 
BRANCH  11  12
ATOM     12  C   UNL     1       3.068 107.902 182.315  1.00  0.00    -0.000 C 
BRANCH  12  13
ATOM     13  C   UNL     1       2.484 108.563 181.059  1.00  0.00    -0.003 C 
ATOM     14  C   UNL     1       3.580 108.893 180.050  1.00  0.00     0.004 C 
ENDBRANCH  12  13
ENDBRANCH  11  12
ENDBRANCH  10  11
ENDBRANCH   9  10
ENDBRANCH   1   9
TORSDOF 10
ENDMDL
MODEL 5
REMARK VINA RESULT:    -2.902      3.489      6.820
REMARK INTER + INTRA:          -6.142
REMARK INTER:                  -5.015
REMARK INTRA:                  -1.126
REMARK UNBOUND:                -1.542
REMARK SMILES CCCCCCCCCCCC(=O)[O-]
REMARK SMILES IDX 7 1 8 2 9 3 10 4 11 5 12 6 13 7 14 8 6 9 5 10 4 11 3 12 2 13
REMARK SMILES IDX 1 14
REMARK H PARENT
REMARK Flexibility Score: inf
ROOT
ATOM      1  C   UNL     1       3.803 112.202 183.815  1.00  0.00     0.000 C 
ENDROOT
BRANCH   1   2
ATOM      2  C   UNL     1       3.534 111.005 182.890  1.00  0.00     0.000 C 
BRANCH   2   3
ATOM      3  C   UNL     1       2.366 110.125 183.373  1.00  0.00     0.000 C 
BRANCH   3   4
ATOM      4  C   UNL     1       2.093 108.874 182.514  1.00  0.00     0.006 C 
BRANCH   4   5
ATOM      5  C   UNL     1       2.985 108.747 181.269  1.00  0.00     0.053 C 
BRANCH   5   6
ATOM      6  C   UNL     1       2.234 108.204 180.093  1.00  0.00     0.041 C 
ATOM      7  O   UNL     1       2.846 107.906 179.033  1.00  0.00    -0.550 OA
ATOM      8  O   UNL     1       0.854 108.062 180.152  1.00  0.00    -0.550 OA
ENDBRANCH   5   6
ENDBRANCH   4   5
ENDBRANCH   3   4
ENDBRANCH   2   3
ENDBRANCH   1   2
BRANCH   1   9
ATOM      9  C   UNL     1       5.214 112.131 184.410  1.00  0.00     0.000 C 
BRANCH   9  10
ATOM     10  C   UNL     1       6.031 111.006 183.761  1.00  0.00    -0.000 C 
BRANCH  10  11
ATOM     11  C   UNL     1       6.852 110.245 184.812  1.00  0.00    -0.000 C 
BRANCH  11  12
ATOM     12  C   UNL     1       6.863 108.728 184.571  1.00  0.00    -0.000 C 
BRANCH  12  13
ATOM     13  C   UNL     1       5.561 108.220 183.935  1.00  0.00    -0.003 C 
ATOM     14  C   UNL     1       5.790 106.912 183.182  1.00  0.00     0.004 C 
ENDBRANCH  12  13
ENDBRANCH  11  12
ENDBRANCH  10  11
ENDBRANCH   9  10
ENDBRANCH   1   9
TORSDOF 10
ENDMDL
MODEL 6
REMARK VINA RESULT:    -2.894      4.187      6.989
REMARK INTER + INTRA:          -6.128
REMARK INTER:                  -4.791
REMARK INTRA:                  -1.337
REMARK UNBOUND:                -1.542
REMARK SMILES CCCCCCCCCCCC(=O)[O-]
REMARK SMILES IDX 7 1 8 2 9 3 10 4 11 5 12 6 13 7 14 8 6 9 5 10 4 11 3 12 2 13
REMARK SMILES IDX 1 14
REMARK H PARENT
REMARK Flexibility Score: inf
ROOT
ATOM      1  C   UNL     1       5.448 111.684 183.048  1.00  0.00     0.000 C 
ENDROOT
BRANCH   1   2
ATOM      2  C   UNL     1       4.375 111.584 181.953  1.00  0.00     0.000 C 
BRANCH   2   3
ATOM      3  C   UNL     1       4.330 110.199 181.282  1.00  0.00     0.000 C 
BRANCH   3   4
ATOM      4  C   UNL     1       3.125 109.322 181.675  1.00  0.00     0.006 C 
BRANCH   4   5
ATOM      5  C   UNL     1       3.260 108.625 183.038  1.00  0.00     0.053 C 
BRANCH   5   6
ATOM      6  C   UNL     1       4.561 107.894 183.169  1.00  0.00     0.041 C 
ATOM      7  O   UNL     1       4.760 106.835 182.518  1.00  0.00    -0.550 OA
ATOM      8  O   UNL     1       5.538 108.362 184.037  1.00  0.00    -0.550 OA
ENDBRANCH   5   6
ENDBRANCH   4   5
ENDBRANCH   3   4
ENDBRANCH   2   3
ENDBRANCH   1   2
BRANCH   1   9
ATOM      9  C   UNL     1       4.843 112.182 184.366  1.00  0.00     0.000 C 
BRANCH   9  10
ATOM     10  C   UNL     1       3.315 112.266 184.275  1.00  0.00    -0.000 C 
BRANCH  10  11
ATOM     11  C   UNL     1       2.811 113.640 184.738  1.00  0.00    -0.000 C 
BRANCH  11  12
ATOM     12  C   UNL     1       3.781 114.778 184.384  1.00  0.00    -0.000 C 
BRANCH  12  13
ATOM     13  C   UNL     1       3.299 115.617 183.193  1.00  0.00    -0.003 C 
ATOM     14  C   UNL     1       4.101 115.300 181.934  1.00  0.00     0.004 C 
ENDBRANCH  12  13
ENDBRANCH  11  12
ENDBRANCH  10  11
ENDBRANCH   9  10
ENDBRANCH   1   9
TORSDOF 10
ENDMDL
MODEL 7
REMARK VINA RESULT:    -2.890      3.135      5.624
REMARK INTER + INTRA:          -6.122
REMARK INTER:                  -4.634
REMARK INTRA:                  -1.488
REMARK UNBOUND:                -1.542
REMARK SMILES CCCCCCCCCCCC(=O)[O-]
REMARK SMILES IDX 7 1 8 2 9 3 10 4 11 5 12 6 13 7 14 8 6 9 5 10 4 11 3 12 2 13
REMARK SMILES IDX 1 14
REMARK H PARENT
REMARK Flexibility Score: inf
ROOT
ATOM      1  C   UNL     1       5.524 107.509 183.715  1.00  0.00     0.000 C 
ENDROOT
BRANCH   1   2
ATOM      2  C   UNL     1       6.217 106.604 182.686  1.00  0.00     0.000 C 
BRANCH   2   3
ATOM      3  C   UNL     1       5.357 106.352 181.433  1.00  0.00     0.000 C 
BRANCH   3   4
ATOM      4  C   UNL     1       3.843 106.577 181.624  1.00  0.00     0.006 C 
BRANCH   4   5
ATOM      5  C   UNL     1       3.099 107.026 180.357  1.00  0.00     0.053 C 
BRANCH   5   6
ATOM      6  C   UNL     1       3.110 105.970 179.295  1.00  0.00     0.041 C 
ATOM      7  O   UNL     1       2.704 104.806 179.555  1.00  0.00    -0.550 OA
ATOM      8  O   UNL     1       3.602 106.259 178.029  1.00  0.00    -0.550 OA
ENDBRANCH   5   6
ENDBRANCH   4   5
ENDBRANCH   3   4
ENDBRANCH   2   3
ENDBRANCH   1   2
BRANCH   1   9
ATOM      9  C   UNL     1       6.393 108.727 184.049  1.00  0.00     0.000 C 
BRANCH   9  10
ATOM     10  C   UNL     1       5.657 110.034 183.731  1.00  0.00    -0.000 C 
BRANCH  10  11
ATOM     11  C   UNL     1       5.390 110.162 182.224  1.00  0.00    -0.000 C 
BRANCH  11  12
ATOM     12  C   UNL     1       3.894 110.284 181.895  1.00  0.00    -0.000 C 
BRANCH  12  13
ATOM     13  C   UNL     1       3.022 110.427 183.150  1.00  0.00    -0.003 C 
ATOM     14  C   UNL     1       1.950 109.342 183.202  1.00  0.00     0.004 C 
ENDBRANCH  12  13
ENDBRANCH  11  12
ENDBRANCH  10  11
ENDBRANCH   9  10
ENDBRANCH   1   9
TORSDOF 10
ENDMDL
MODEL 8
REMARK VINA RESULT:    -2.836      4.160      6.376
REMARK INTER + INTRA:          -6.036
REMARK INTER:                  -5.150
REMARK INTRA:                  -0.886
REMARK UNBOUND:                -1.542
REMARK SMILES CCCCCCCCCCCC(=O)[O-]
REMARK SMILES IDX 7 1 8 2 9 3 10 4 11 5 12 6 13 7 14 8 6 9 5 10 4 11 3 12 2 13
REMARK SMILES IDX 1 14
REMARK H PARENT
REMARK Flexibility Score: inf
ROOT
ATOM      1  C   UNL     1       2.792 109.099 182.096  1.00  0.00     0.000 C 
ENDROOT
BRANCH   1   2
ATOM      2  C   UNL     1       2.452 110.101 183.210  1.00  0.00     0.000 C 
BRANCH   2   3
ATOM      3  C   UNL     1       3.490 111.231 183.338  1.00  0.00     0.000 C 
BRANCH   3   4
ATOM      4  C   UNL     1       3.115 112.353 184.326  1.00  0.00     0.006 C 
BRANCH   4   5
ATOM      5  C   UNL     1       4.297 113.220 184.788  1.00  0.00     0.053 C 
BRANCH   5   6
ATOM      6  C   UNL     1       4.352 114.528 184.062  1.00  0.00     0.041 C 
ATOM      7  O   UNL     1       5.453 115.118 183.902  1.00  0.00    -0.550 OA
ATOM      8  O   UNL     1       3.184 115.115 183.593  1.00  0.00    -0.550 OA
ENDBRANCH   5   6
ENDBRANCH   4   5
ENDBRANCH   3   4
ENDBRANCH   2   3
ENDBRANCH   1   2
BRANCH   1   9
ATOM      9  C   UNL     1       3.265 107.764 182.683  1.00  0.00     0.000 C 
BRANCH   9  10
ATOM     10  C   UNL     1       4.201 107.035 181.711  1.00  0.00    -0.000 C 
BRANCH  10  11
ATOM     11  C   UNL     1       5.524 106.664 182.397  1.00  0.00    -0.000 C 
BRANCH  11  12
ATOM     12  C   UNL     1       5.729 107.402 183.729  1.00  0.00    -0.000 C 
BRANCH  12  13
ATOM     13  C   UNL     1       6.831 108.468 183.652  1.00  0.00    -0.003 C 
ATOM     14  C   UNL     1       6.569 109.603 184.638  1.00  0.00     0.004 C 
ENDBRANCH  12  13
ENDBRANCH  11  12
ENDBRANCH  10  11
ENDBRANCH   9  10
ENDBRANCH   1   9
TORSDOF 10
ENDMDL
MODEL 9
REMARK VINA RESULT:    -2.825      1.945      2.358
REMARK INTER + INTRA:          -6.020
REMARK INTER:                  -4.874
REMARK INTRA:                  -1.146
REMARK UNBOUND:                -1.542
REMARK SMILES CCCCCCCCCCCC(=O)[O-]
REMARK SMILES IDX 7 1 8 2 9 3 10 4 11 5 12 6 13 7 14 8 6 9 5 10 4 11 3 12 2 13
REMARK SMILES IDX 1 14
REMARK H PARENT
REMARK Flexibility Score: inf
ROOT
ATOM      1  C   UNL     1       4.363 105.135 178.816  1.00  0.00     0.000 C 
ENDROOT
BRANCH   1   2
ATOM      2  C   UNL     1       4.986 105.831 180.035  1.00  0.00     0.000 C 
BRANCH   2   3
ATOM      3  C   UNL     1       4.111 106.973 180.584  1.00  0.00     0.000 C 
BRANCH   3   4
ATOM      4  C   UNL     1       3.754 106.861 182.080  1.00  0.00     0.006 C 
BRANCH   4   5
ATOM      5  C   UNL     1       4.257 108.026 182.947  1.00  0.00     0.053 C 
BRANCH   5   6
ATOM      6  C   UNL     1       5.522 107.682 183.672  1.00  0.00     0.041 C 
ATOM      7  O   UNL     1       6.146 108.570 184.310  1.00  0.00    -0.550 OA
ATOM      8  O   UNL     1       6.030 106.392 183.612  1.00  0.00    -0.550 OA
ENDBRANCH   5   6
ENDBRANCH   4   5
ENDBRANCH   3   4
ENDBRANCH   2   3
ENDBRANCH   1   2
BRANCH   1   9
ATOM      9  C   UNL     1       2.889 104.798 179.068  1.00  0.00     0.000 C 
BRANCH   9  10
ATOM     10  C   UNL     1       2.087 104.818 177.762  1.00  0.00    -0.000 C 
BRANCH  10  11
ATOM     11  C   UNL     1       1.015 105.917 177.791  1.00  0.00    -0.000 C 
BRANCH  11  12
ATOM     12  C   UNL     1       1.557 107.286 177.351  1.00  0.00    -0.000 C 
BRANCH  12  13
ATOM     13  C   UNL     1       1.559 108.316 178.490  1.00  0.00    -0.003 C 
ATOM     14  C   UNL     1       0.667 107.864 179.642  1.00  0.00     0.004 C 
ENDBRANCH  12  13
ENDBRANCH  11  12
ENDBRANCH  10  11
ENDBRANCH   9  10
ENDBRANCH   1   9
TORSDOF 10
ENDMDL
