MODEL 1
REMARK VINA RESULT:    -4.353      0.000      0.000
REMARK INTER + INTRA:          -9.235
REMARK INTER:                  -8.424
REMARK INTRA:                  -0.811
REMARK UNBOUND:                -0.811
REMARK SMILES CCCCCCCCCCCCCCCCCC(=O)[O-]
REMARK SMILES IDX 10 1 11 2 12 3 13 4 14 5 15 6 16 7 17 8 18 9 19 10 20 11
REMARK SMILES IDX 9 12 8 13 7 14 6 15 5 16 4 17 3 18 2 19 1 20
REMARK H PARENT
REMARK Flexibility Score: inf
ROOT
ATOM      1  C   UNL     1      -7.206  -9.439   0.439  1.00  0.00     0.000 C 
ENDROOT
BRANCH   1   2
ATOM      2  C   UNL     1      -7.581  -8.111  -0.240  1.00  0.00     0.000 C 
BRANCH   2   3
ATOM      3  C   UNL     1      -6.409  -7.116  -0.272  1.00  0.00     0.000 C 
BRANCH   3   4
ATOM      4  C   UNL     1      -6.627  -5.902   0.650  1.00  0.00     0.000 C 
BRANCH   4   5
ATOM      5  C   UNL     1      -7.695  -6.091   1.743  1.00  0.00     0.000 C 
BRANCH   5   6
ATOM      6  C   UNL     1      -7.636  -5.006   2.832  1.00  0.00     0.000 C 
BRANCH   6   7
ATOM      7  C   UNL     1      -8.795  -4.001   2.725  1.00  0.00     0.006 C 
BRANCH   7   8
ATOM      8  C   UNL     1     -10.088  -4.642   2.202  1.00  0.00     0.053 C 
BRANCH   8   9
ATOM      9  C   UNL     1     -11.205  -3.646   2.218  1.00  0.00     0.041 C 
ATOM     10  O   UNL     1     -12.396  -4.028   2.075  1.00  0.00    -0.550 OA
ATOM     11  O   UNL     1     -10.934  -2.301   2.439  1.00  0.00    -0.550 OA
ENDBRANCH   8   9
ENDBRANCH   7   8
ENDBRANCH   6   7
ENDBRANCH   5   6
ENDBRANCH   4   5
ENDBRANCH   3   4
ENDBRANCH   2   3
ENDBRANCH   1   2
BRANCH   1  12
ATOM     12  C   UNL     1      -6.549 -10.431  -0.535  1.00  0.00     0.000 C 
BRANCH  12  13
ATOM     13  C   UNL     1      -5.606 -11.426   0.168  1.00  0.00    -0.000 C 
BRANCH  13  14
ATOM     14  C   UNL     1      -6.036 -11.840   1.588  1.00  0.00    -0.000 C 
BRANCH  14  15
ATOM     15  C   UNL     1      -5.907 -13.350   1.839  1.00  0.00    -0.000 C 
BRANCH  15  16
ATOM     16  C   UNL     1      -6.273 -14.149   0.579  1.00  0.00    -0.000 C 
BRANCH  16  17
ATOM     17  C   UNL     1      -6.531 -15.636   0.873  1.00  0.00    -0.000 C 
BRANCH  17  18
ATOM     18  C   UNL     1      -5.232 -16.453   0.976  1.00  0.00    -0.000 C 
BRANCH  18  19
ATOM     19  C   UNL     1      -5.388 -17.878   0.424  1.00  0.00    -0.003 C 
ATOM     20  C   UNL     1      -6.652 -18.576   0.929  1.00  0.00     0.004 C 
ENDBRANCH  18  19
ENDBRANCH  17  18
ENDBRANCH  16  17
ENDBRANCH  15  16
ENDBRANCH  14  15
ENDBRANCH  13  14
ENDBRANCH  12  13
ENDBRANCH   1  12
TORSDOF 16
ENDMDL
MODEL 2
REMARK VINA RESULT:    -4.294      2.319      4.454
REMARK INTER + INTRA:          -9.122
REMARK INTER:                  -7.920
REMARK INTRA:                  -1.202
REMARK UNBOUND:                -0.811
REMARK SMILES CCCCCCCCCCCCCCCCCC(=O)[O-]
REMARK SMILES IDX 10 1 11 2 12 3 13 4 14 5 15 6 16 7 17 8 18 9 19 10 20 11
REMARK SMILES IDX 9 12 8 13 7 14 6 15 5 16 4 17 3 18 2 19 1 20
REMARK H PARENT
REMARK Flexibility Score: inf
ROOT
ATOM      1  C   UNL     1      -5.973 -13.317   0.164  1.00  0.00     0.000 C 
ENDROOT
BRANCH   1   2
ATOM      2  C   UNL     1      -5.101 -12.189  -0.413  1.00  0.00     0.000 C 
BRANCH   2   3
ATOM      3  C   UNL     1      -4.974 -10.996   0.548  1.00  0.00     0.000 C 
BRANCH   3   4
ATOM      4  C   UNL     1      -6.148 -10.897   1.540  1.00  0.00     0.000 C 
BRANCH   4   5
ATOM      5  C   UNL     1      -6.978  -9.604   1.449  1.00  0.00     0.000 C 
BRANCH   5   6
ATOM      6  C   UNL     1      -7.465  -9.305   0.020  1.00  0.00     0.000 C 
BRANCH   6   7
ATOM      7  C   UNL     1      -7.345  -7.816  -0.344  1.00  0.00     0.006 C 
BRANCH   7   8
ATOM      8  C   UNL     1      -6.338  -7.070   0.542  1.00  0.00     0.053 C 
BRANCH   8   9
ATOM      9  C   UNL     1      -6.990  -5.887   1.186  1.00  0.00     0.041 C 
ATOM     10  O   UNL     1      -8.118  -6.004   1.732  1.00  0.00    -0.550 OA
ATOM     11  O   UNL     1      -6.328  -4.666   1.227  1.00  0.00    -0.550 OA
ENDBRANCH   8   9
ENDBRANCH   7   8
ENDBRANCH   6   7
ENDBRANCH   5   6
ENDBRANCH   4   5
ENDBRANCH   3   4
ENDBRANCH   2   3
ENDBRANCH   1   2
BRANCH   1  12
ATOM     12  C   UNL     1      -5.142 -14.387   0.894  1.00  0.00     0.000 C 
BRANCH  12  13
ATOM     13  C   UNL     1      -5.872 -14.985   2.112  1.00  0.00    -0.000 C 
BRANCH  13  14
ATOM     14  C   UNL     1      -5.857 -16.522   2.190  1.00  0.00    -0.000 C 
BRANCH  14  15
ATOM     15  C   UNL     1      -5.109 -17.177   1.020  1.00  0.00    -0.000 C 
BRANCH  15  16
ATOM     16  C   UNL     1      -5.982 -18.242   0.337  1.00  0.00    -0.000 C 
BRANCH  16  17
ATOM     17  C   UNL     1      -6.589 -19.242   1.336  1.00  0.00    -0.000 C 
BRANCH  17  18
ATOM     18  C   UNL     1      -7.043 -20.548   0.662  1.00  0.00    -0.000 C 
BRANCH  18  19
ATOM     19  C   UNL     1      -7.598 -20.318  -0.752  1.00  0.00    -0.003 C 
ATOM     20  C   UNL     1      -6.830 -21.092  -1.824  1.00  0.00     0.004 C 
ENDBRANCH  18  19
ENDBRANCH  17  18
ENDBRANCH  16  17
ENDBRANCH  15  16
ENDBRANCH  14  15
ENDBRANCH  13  14
ENDBRANCH  12  13
ENDBRANCH   1  12
TORSDOF 16
ENDMDL
MODEL 3
REMARK VINA RESULT:    -4.269      1.115      2.135
REMARK INTER + INTRA:          -9.073
REMARK INTER:                  -8.341
REMARK INTRA:                  -0.731
REMARK UNBOUND:                -0.811
REMARK SMILES CCCCCCCCCCCCCCCCCC(=O)[O-]
REMARK SMILES IDX 10 1 11 2 12 3 13 4 14 5 15 6 16 7 17 8 18 9 19 10 20 11
REMARK SMILES IDX 9 12 8 13 7 14 6 15 5 16 4 17 3 18 2 19 1 20
REMARK H PARENT
REMARK Flexibility Score: inf
ROOT
ATOM      1  C   UNL     1      -6.061 -11.114   0.554  1.00  0.00     0.000 C 
ENDROOT
BRANCH   1   2
ATOM      2  C   UNL     1      -6.754 -10.105  -0.378  1.00  0.00     0.000 C 
BRANCH   2   3
ATOM      3  C   UNL     1      -7.488  -8.998   0.397  1.00  0.00     0.000 C 
BRANCH   3   4
ATOM      4  C   UNL     1      -7.408  -7.626  -0.297  1.00  0.00     0.000 C 
BRANCH   4   5
ATOM      5  C   UNL     1      -6.558  -6.570   0.433  1.00  0.00     0.000 C 
BRANCH   5   6
ATOM      6  C   UNL     1      -6.899  -6.457   1.929  1.00  0.00     0.000 C 
BRANCH   6   7
ATOM      7  C   UNL     1      -7.721  -5.199   2.253  1.00  0.00     0.006 C 
BRANCH   7   8
ATOM      8  C   UNL     1      -9.219  -5.384   1.978  1.00  0.00     0.053 C 
BRANCH   8   9
ATOM      9  C   UNL     1      -9.969  -4.135   2.320  1.00  0.00     0.041 C 
ATOM     10  O   UNL     1      -9.348  -3.103   2.683  1.00  0.00    -0.550 OA
ATOM     11  O   UNL     1     -11.352  -4.097   2.189  1.00  0.00    -0.550 OA
ENDBRANCH   8   9
ENDBRANCH   7   8
ENDBRANCH   6   7
ENDBRANCH   5   6
ENDBRANCH   4   5
ENDBRANCH   3   4
ENDBRANCH   2   3
ENDBRANCH   1   2
BRANCH   1  12
ATOM     12  C   UNL     1      -5.263 -12.177  -0.221  1.00  0.00     0.000 C 
BRANCH  12  13
ATOM     13  C   UNL     1      -5.684 -13.616   0.130  1.00  0.00    -0.000 C 
BRANCH  13  14
ATOM     14  C   UNL     1      -6.321 -13.790   1.521  1.00  0.00    -0.000 C 
BRANCH  14  15
ATOM     15  C   UNL     1      -6.215 -15.225   2.056  1.00  0.00    -0.000 C 
BRANCH  15  16
ATOM     16  C   UNL     1      -6.441 -16.248   0.932  1.00  0.00    -0.000 C 
BRANCH  16  17
ATOM     17  C   UNL     1      -6.160 -17.693   1.378  1.00  0.00    -0.000 C 
BRANCH  17  18
ATOM     18  C   UNL     1      -5.984 -18.654   0.191  1.00  0.00    -0.000 C 
BRANCH  18  19
ATOM     19  C   UNL     1      -6.794 -19.949   0.357  1.00  0.00    -0.003 C 
ATOM     20  C   UNL     1      -7.497 -20.380  -0.931  1.00  0.00     0.004 C 
ENDBRANCH  18  19
ENDBRANCH  17  18
ENDBRANCH  16  17
ENDBRANCH  15  16
ENDBRANCH  14  15
ENDBRANCH  13  14
ENDBRANCH  12  13
ENDBRANCH   1  12
TORSDOF 16
ENDMDL
MODEL 4
REMARK VINA RESULT:    -4.239      2.650      3.913
REMARK INTER + INTRA:          -9.014
REMARK INTER:                  -8.251
REMARK INTRA:                  -0.763
REMARK UNBOUND:                -0.811
REMARK SMILES CCCCCCCCCCCCCCCCCC(=O)[O-]
REMARK SMILES IDX 10 1 11 2 12 3 13 4 14 5 15 6 16 7 17 8 18 9 19 10 20 11
REMARK SMILES IDX 9 12 8 13 7 14 6 15 5 16 4 17 3 18 2 19 1 20
REMARK H PARENT
REMARK Flexibility Score: inf
ROOT
ATOM      1  C   UNL     1      -6.353 -11.421   1.886  1.00  0.00     0.000 C 
ENDROOT
BRANCH   1   2
ATOM      2  C   UNL     1      -6.465  -9.992   1.327  1.00  0.00     0.000 C 
BRANCH   2   3
ATOM      3  C   UNL     1      -7.003  -9.966  -0.113  1.00  0.00     0.000 C 
BRANCH   3   4
ATOM      4  C   UNL     1      -7.750  -8.662  -0.450  1.00  0.00     0.000 C 
BRANCH   4   5
ATOM      5  C   UNL     1      -7.006  -7.365  -0.083  1.00  0.00     0.000 C 
BRANCH   5   6
ATOM      6  C   UNL     1      -7.728  -6.549   1.004  1.00  0.00     0.000 C 
BRANCH   6   7
ATOM      7  C   UNL     1      -6.892  -5.356   1.497  1.00  0.00     0.006 C 
BRANCH   7   8
ATOM      8  C   UNL     1      -5.478  -5.338   0.901  1.00  0.00     0.053 C 
BRANCH   8   9
ATOM      9  C   UNL     1      -5.325  -4.185  -0.041  1.00  0.00     0.041 C 
ATOM     10  O   UNL     1      -5.383  -3.003   0.390  1.00  0.00    -0.550 OA
ATOM     11  O   UNL     1      -5.069  -4.416  -1.386  1.00  0.00    -0.550 OA
ENDBRANCH   8   9
ENDBRANCH   7   8
ENDBRANCH   6   7
ENDBRANCH   5   6
ENDBRANCH   4   5
ENDBRANCH   3   4
ENDBRANCH   2   3
ENDBRANCH   1   2
BRANCH   1  12
ATOM     12  C   UNL     1      -6.019 -12.453   0.795  1.00  0.00     0.000 C 
BRANCH  12  13
ATOM     13  C   UNL     1      -5.674 -13.840   1.369  1.00  0.00    -0.000 C 
BRANCH  13  14
ATOM     14  C   UNL     1      -6.501 -15.007   0.796  1.00  0.00    -0.000 C 
BRANCH  14  15
ATOM     15  C   UNL     1      -6.191 -16.351   1.471  1.00  0.00    -0.000 C 
BRANCH  15  16
ATOM     16  C   UNL     1      -5.396 -17.268   0.529  1.00  0.00    -0.000 C 
BRANCH  16  17
ATOM     17  C   UNL     1      -5.752 -18.753   0.705  1.00  0.00    -0.000 C 
BRANCH  17  18
ATOM     18  C   UNL     1      -7.185 -19.076   0.249  1.00  0.00    -0.000 C 
BRANCH  18  19
ATOM     19  C   UNL     1      -7.225 -20.155  -0.845  1.00  0.00    -0.003 C 
ATOM     20  C   UNL     1      -5.899 -20.289  -1.596  1.00  0.00     0.004 C 
ENDBRANCH  18  19
ENDBRANCH  17  18
ENDBRANCH  16  17
ENDBRANCH  15  16
ENDBRANCH  14  15
ENDBRANCH  13  14
ENDBRANCH  12  13
ENDBRANCH   1  12
TORSDOF 16
ENDMDL
MODEL 5
REMARK VINA RESULT:    -4.144      5.670     11.060
REMARK INTER + INTRA:          -8.831
REMARK INTER:                  -7.964
REMARK INTRA:                  -0.867
REMARK UNBOUND:                -0.811
REMARK SMILES CCCCCCCCCCCCCCCCCC(=O)[O-]
REMARK SMILES IDX 10 1 11 2 12 3 13 4 14 5 15 6 16 7 17 8 18 9 19 10 20 11
REMARK SMILES IDX 9 12 8 13 7 14 6 15 5 16 4 17 3 18 2 19 1 20
REMARK H PARENT
REMARK Flexibility Score: inf
ROOT
ATOM      1  C   UNL     1      -6.430 -10.622  -0.605  1.00  0.00     0.000 C 
ENDROOT
BRANCH   1   2
ATOM      2  C   UNL     1      -5.422 -11.329   0.317  1.00  0.00     0.000 C 
BRANCH   2   3
ATOM      3  C   UNL     1      -6.056 -12.492   1.097  1.00  0.00     0.000 C 
BRANCH   3   4
ATOM      4  C   UNL     1      -5.839 -13.858   0.419  1.00  0.00     0.000 C 
BRANCH   4   5
ATOM      5  C   UNL     1      -6.757 -14.991   0.914  1.00  0.00     0.000 C 
BRANCH   5   6
ATOM      6  C   UNL     1      -5.981 -16.151   1.561  1.00  0.00     0.000 C 
BRANCH   6   7
ATOM      7  C   UNL     1      -5.767 -17.327   0.595  1.00  0.00     0.006 C 
BRANCH   7   8
ATOM      8  C   UNL     1      -6.802 -18.444   0.783  1.00  0.00     0.053 C 
BRANCH   8   9
ATOM      9  C   UNL     1      -6.698 -19.442  -0.328  1.00  0.00     0.041 C 
ATOM     10  O   UNL     1      -5.696 -19.439  -1.089  1.00  0.00    -0.550 OA
ATOM     11  O   UNL     1      -7.684 -20.407  -0.490  1.00  0.00    -0.550 OA
ENDBRANCH   8   9
ENDBRANCH   7   8
ENDBRANCH   6   7
ENDBRANCH   5   6
ENDBRANCH   4   5
ENDBRANCH   3   4
ENDBRANCH   2   3
ENDBRANCH   1   2
BRANCH   1  12
ATOM     12  C   UNL     1      -7.195  -9.497   0.115  1.00  0.00     0.000 C 
BRANCH  12  13
ATOM     13  C   UNL     1      -6.279  -8.605   0.974  1.00  0.00    -0.000 C 
BRANCH  13  14
ATOM     14  C   UNL     1      -6.633  -8.557   2.471  1.00  0.00    -0.000 C 
BRANCH  14  15
ATOM     15  C   UNL     1      -6.638  -7.131   3.042  1.00  0.00    -0.000 C 
BRANCH  15  16
ATOM     16  C   UNL     1      -6.358  -6.097   1.941  1.00  0.00    -0.000 C 
BRANCH  16  17
ATOM     17  C   UNL     1      -7.340  -4.914   1.974  1.00  0.00    -0.000 C 
BRANCH  17  18
ATOM     18  C   UNL     1      -8.810  -5.366   1.970  1.00  0.00    -0.000 C 
BRANCH  18  19
ATOM     19  C   UNL     1      -9.775  -4.229   2.341  1.00  0.00    -0.003 C 
ATOM     20  C   UNL     1     -11.188  -4.450   1.799  1.00  0.00     0.004 C 
ENDBRANCH  18  19
ENDBRANCH  17  18
ENDBRANCH  16  17
ENDBRANCH  15  16
ENDBRANCH  14  15
ENDBRANCH  13  14
ENDBRANCH  12  13
ENDBRANCH   1  12
TORSDOF 16
ENDMDL
MODEL 6
REMARK VINA RESULT:    -4.143      5.140     10.537
REMARK INTER + INTRA:          -8.829
REMARK INTER:                  -7.848
REMARK INTRA:                  -0.981
REMARK UNBOUND:                -0.811
REMARK SMILES CCCCCCCCCCCCCCCCCC(=O)[O-]
REMARK SMILES IDX 10 1 11 2 12 3 13 4 14 5 15 6 16 7 17 8 18 9 19 10 20 11
REMARK SMILES IDX 9 12 8 13 7 14 6 15 5 16 4 17 3 18 2 19 1 20
REMARK H PARENT
REMARK Flexibility Score: inf
ROOT
ATOM      1  C   UNL     1      -7.482  -9.122  -0.151  1.00  0.00     0.000 C 
ENDROOT
BRANCH   1   2
ATOM      2  C   UNL     1      -6.526 -10.208  -0.672  1.00  0.00     0.000 C 
BRANCH   2   3
ATOM      3  C   UNL     1      -6.345 -11.360   0.331  1.00  0.00     0.000 C 
BRANCH   3   4
ATOM      4  C   UNL     1      -4.963 -12.032   0.230  1.00  0.00     0.000 C 
BRANCH   4   5
ATOM      5  C   UNL     1      -4.979 -13.571   0.227  1.00  0.00     0.000 C 
BRANCH   5   6
ATOM      6  C   UNL     1      -6.368 -14.156   0.538  1.00  0.00     0.000 C 
BRANCH   6   7
ATOM      7  C   UNL     1      -6.299 -15.363   1.488  1.00  0.00     0.006 C 
BRANCH   7   8
ATOM      8  C   UNL     1      -5.592 -16.571   0.859  1.00  0.00     0.053 C 
BRANCH   8   9
ATOM      9  C   UNL     1      -6.243 -17.844   1.302  1.00  0.00     0.041 C 
ATOM     10  O   UNL     1      -6.743 -18.628   0.454  1.00  0.00    -0.550 OA
ATOM     11  O   UNL     1      -6.253 -18.186   2.649  1.00  0.00    -0.550 OA
ENDBRANCH   8   9
ENDBRANCH   7   8
ENDBRANCH   6   7
ENDBRANCH   5   6
ENDBRANCH   4   5
ENDBRANCH   3   4
ENDBRANCH   2   3
ENDBRANCH   1   2
BRANCH   1  12
ATOM     12  C   UNL     1      -7.205  -8.751   1.317  1.00  0.00     0.000 C 
BRANCH  12  13
ATOM     13  C   UNL     1      -6.244  -7.556   1.462  1.00  0.00    -0.000 C 
BRANCH  13  14
ATOM     14  C   UNL     1      -6.622  -6.311   0.639  1.00  0.00    -0.000 C 
BRANCH  14  15
ATOM     15  C   UNL     1      -7.013  -5.109   1.511  1.00  0.00    -0.000 C 
BRANCH  15  16
ATOM     16  C   UNL     1      -7.539  -5.571   2.879  1.00  0.00    -0.000 C 
BRANCH  16  17
ATOM     17  C   UNL     1      -9.076  -5.600   2.945  1.00  0.00    -0.000 C 
BRANCH  17  18
ATOM     18  C   UNL     1      -9.717  -4.346   2.327  1.00  0.00    -0.000 C 
BRANCH  18  19
ATOM     19  C   UNL     1     -11.151  -4.600   1.836  1.00  0.00    -0.003 C 
ATOM     20  C   UNL     1     -12.194  -3.782   2.597  1.00  0.00     0.004 C 
ENDBRANCH  18  19
ENDBRANCH  17  18
ENDBRANCH  16  17
ENDBRANCH  15  16
ENDBRANCH  14  15
ENDBRANCH  13  14
ENDBRANCH  12  13
ENDBRANCH   1  12
TORSDOF 16
ENDMDL
MODEL 7
REMARK VINA RESULT:    -3.825     20.315     22.846
REMARK INTER + INTRA:          -8.213
REMARK INTER:                  -5.360
REMARK INTRA:                  -2.853
REMARK UNBOUND:                -0.811
REMARK SMILES CCCCCCCCCCCCCCCCCC(=O)[O-]
REMARK SMILES IDX 10 1 11 2 12 3 13 4 14 5 15 6 16 7 17 8 18 9 19 10 20 11
REMARK SMILES IDX 9 12 8 13 7 14 6 15 5 16 4 17 3 18 2 19 1 20
REMARK H PARENT
REMARK Flexibility Score: inf
ROOT
ATOM      1  C   UNL     1     -22.759  -4.730 -12.956  1.00  0.00     0.000 C 
ENDROOT
BRANCH   1   2
ATOM      2  C   UNL     1     -23.977  -3.838 -12.659  1.00  0.00     0.000 C 
BRANCH   2   3
ATOM      3  C   UNL     1     -23.576  -2.395 -12.308  1.00  0.00     0.000 C 
BRANCH   3   4
ATOM      4  C   UNL     1     -24.003  -1.377 -13.383  1.00  0.00     0.000 C 
BRANCH   4   5
ATOM      5  C   UNL     1     -24.653  -1.983 -14.640  1.00  0.00     0.000 C 
BRANCH   5   6
ATOM      6  C   UNL     1     -23.793  -1.808 -15.903  1.00  0.00     0.000 C 
BRANCH   6   7
ATOM      7  C   UNL     1     -22.298  -1.644 -15.580  1.00  0.00     0.006 C 
BRANCH   7   8
ATOM      8  C   UNL     1     -21.449  -2.808 -16.107  1.00  0.00     0.053 C 
BRANCH   8   9
ATOM      9  C   UNL     1     -19.992  -2.503 -15.945  1.00  0.00     0.041 C 
ATOM     10  O   UNL     1     -19.624  -1.379 -15.516  1.00  0.00    -0.550 OA
ATOM     11  O   UNL     1     -19.043  -3.480 -16.222  1.00  0.00    -0.550 OA
ENDBRANCH   8   9
ENDBRANCH   7   8
ENDBRANCH   6   7
ENDBRANCH   5   6
ENDBRANCH   4   5
ENDBRANCH   3   4
ENDBRANCH   2   3
ENDBRANCH   1   2
BRANCH   1  12
ATOM     12  C   UNL     1     -21.427  -4.025 -12.645  1.00  0.00     0.000 C 
BRANCH  12  13
ATOM     13  C   UNL     1     -20.198  -4.866 -13.039  1.00  0.00    -0.000 C 
BRANCH  13  14
ATOM     14  C   UNL     1     -20.385  -6.390 -12.924  1.00  0.00    -0.000 C 
BRANCH  14  15
ATOM     15  C   UNL     1     -20.005  -7.142 -14.208  1.00  0.00    -0.000 C 
BRANCH  15  16
ATOM     16  C   UNL     1     -20.686  -6.515 -15.434  1.00  0.00    -0.000 C 
BRANCH  16  17
ATOM     17  C   UNL     1     -22.070  -7.122 -15.720  1.00  0.00    -0.000 C 
BRANCH  17  18
ATOM     18  C   UNL     1     -22.892  -6.279 -16.708  1.00  0.00    -0.000 C 
BRANCH  18  19
ATOM     19  C   UNL     1     -24.403  -6.527 -16.578  1.00  0.00    -0.003 C 
ATOM     20  C   UNL     1     -25.125  -5.413 -15.819  1.00  0.00     0.004 C 
ENDBRANCH  18  19
ENDBRANCH  17  18
ENDBRANCH  16  17
ENDBRANCH  15  16
ENDBRANCH  14  15
ENDBRANCH  13  14
ENDBRANCH  12  13
ENDBRANCH   1  12
TORSDOF 16
ENDMDL
MODEL 8
REMARK VINA RESULT:    -3.783     19.964     23.155
REMARK INTER + INTRA:          -8.133
REMARK INTER:                  -5.239
REMARK INTRA:                  -2.893
REMARK UNBOUND:                -0.811
REMARK SMILES CCCCCCCCCCCCCCCCCC(=O)[O-]
REMARK SMILES IDX 10 1 11 2 12 3 13 4 14 5 15 6 16 7 17 8 18 9 19 10 20 11
REMARK SMILES IDX 9 12 8 13 7 14 6 15 5 16 4 17 3 18 2 19 1 20
REMARK H PARENT
REMARK Flexibility Score: inf
ROOT
ATOM      1  C   UNL     1     -22.649  -4.603 -12.783  1.00  0.00     0.000 C 
ENDROOT
BRANCH   1   2
ATOM      2  C   UNL     1     -24.038  -4.120 -13.235  1.00  0.00     0.000 C 
BRANCH   2   3
ATOM      3  C   UNL     1     -24.399  -4.613 -14.647  1.00  0.00     0.000 C 
BRANCH   3   4
ATOM      4  C   UNL     1     -23.247  -4.440 -15.655  1.00  0.00     0.000 C 
BRANCH   4   5
ATOM      5  C   UNL     1     -23.024  -5.629 -16.607  1.00  0.00     0.000 C 
BRANCH   5   6
ATOM      6  C   UNL     1     -21.651  -6.298 -16.417  1.00  0.00     0.000 C 
BRANCH   6   7
ATOM      7  C   UNL     1     -21.605  -7.204 -15.175  1.00  0.00     0.006 C 
BRANCH   7   8
ATOM      8  C   UNL     1     -20.225  -7.217 -14.504  1.00  0.00     0.053 C 
BRANCH   8   9
ATOM      9  C   UNL     1     -20.265  -8.033 -13.250  1.00  0.00     0.041 C 
ATOM     10  O   UNL     1     -20.716  -7.537 -12.185  1.00  0.00    -0.550 OA
ATOM     11  O   UNL     1     -19.849  -9.359 -13.271  1.00  0.00    -0.550 OA
ENDBRANCH   8   9
ENDBRANCH   7   8
ENDBRANCH   6   7
ENDBRANCH   5   6
ENDBRANCH   4   5
ENDBRANCH   3   4
ENDBRANCH   2   3
ENDBRANCH   1   2
BRANCH   1  12
ATOM     12  C   UNL     1     -21.720  -3.438 -12.398  1.00  0.00     0.000 C 
BRANCH  12  13
ATOM     13  C   UNL     1     -22.458  -2.299 -11.670  1.00  0.00    -0.000 C 
BRANCH  13  14
ATOM     14  C   UNL     1     -22.549  -0.976 -12.452  1.00  0.00    -0.000 C 
BRANCH  14  15
ATOM     15  C   UNL     1     -21.736  -0.991 -13.755  1.00  0.00    -0.000 C 
BRANCH  15  16
ATOM     16  C   UNL     1     -22.661  -0.981 -14.981  1.00  0.00    -0.000 C 
BRANCH  16  17
ATOM     17  C   UNL     1     -21.888  -1.017 -16.309  1.00  0.00    -0.000 C 
BRANCH  17  18
ATOM     18  C   UNL     1     -20.393  -1.326 -16.115  1.00  0.00    -0.000 C 
BRANCH  18  19
ATOM     19  C   UNL     1     -20.037  -2.769 -16.504  1.00  0.00    -0.003 C 
ATOM     20  C   UNL     1     -19.557  -3.604 -15.315  1.00  0.00     0.004 C 
ENDBRANCH  18  19
ENDBRANCH  17  18
ENDBRANCH  16  17
ENDBRANCH  15  16
ENDBRANCH  14  15
ENDBRANCH  13  14
ENDBRANCH  12  13
ENDBRANCH   1  12
TORSDOF 16
ENDMDL
MODEL 9
REMARK VINA RESULT:    -3.780     19.479     21.829
REMARK INTER + INTRA:          -8.127
REMARK INTER:                  -5.981
REMARK INTRA:                  -2.145
REMARK UNBOUND:                -0.811
REMARK SMILES CCCCCCCCCCCCCCCCCC(=O)[O-]
REMARK SMILES IDX 10 1 11 2 12 3 13 4 14 5 15 6 16 7 17 8 18 9 19 10 20 11
REMARK SMILES IDX 9 12 8 13 7 14 6 15 5 16 4 17 3 18 2 19 1 20
REMARK H PARENT
REMARK Flexibility Score: inf
ROOT
ATOM      1  C   UNL     1     -19.982  -1.359 -16.026  1.00  0.00     0.000 C 
ENDROOT
BRANCH   1   2
ATOM      2  C   UNL     1     -21.112  -1.722 -15.048  1.00  0.00     0.000 C 
BRANCH   2   3
ATOM      3  C   UNL     1     -22.504  -1.602 -15.689  1.00  0.00     0.000 C 
BRANCH   3   4
ATOM      4  C   UNL     1     -23.301  -2.919 -15.643  1.00  0.00     0.000 C 
BRANCH   4   5
ATOM      5  C   UNL     1     -23.788  -3.343 -14.245  1.00  0.00     0.000 C 
BRANCH   5   6
ATOM      6  C   UNL     1     -24.819  -2.368 -13.649  1.00  0.00     0.000 C 
BRANCH   6   7
ATOM      7  C   UNL     1     -24.493  -1.982 -12.197  1.00  0.00     0.006 C 
BRANCH   7   8
ATOM      8  C   UNL     1     -23.252  -1.087 -12.087  1.00  0.00     0.053 C 
BRANCH   8   9
ATOM      9  C   UNL     1     -22.217  -1.736 -11.223  1.00  0.00     0.041 C 
ATOM     10  O   UNL     1     -21.827  -1.171 -10.168  1.00  0.00    -0.550 OA
ATOM     11  O   UNL     1     -21.720  -2.990 -11.558  1.00  0.00    -0.550 OA
ENDBRANCH   8   9
ENDBRANCH   7   8
ENDBRANCH   6   7
ENDBRANCH   5   6
ENDBRANCH   4   5
ENDBRANCH   3   4
ENDBRANCH   2   3
ENDBRANCH   1   2
BRANCH   1  12
ATOM     12  C   UNL     1     -19.066  -2.556 -16.335  1.00  0.00     0.000 C 
BRANCH  12  13
ATOM     13  C   UNL     1     -19.844  -3.806 -16.787  1.00  0.00    -0.000 C 
BRANCH  13  14
ATOM     14  C   UNL     1     -19.967  -4.917 -15.729  1.00  0.00    -0.000 C 
BRANCH  14  15
ATOM     15  C   UNL     1     -21.024  -5.973 -16.085  1.00  0.00    -0.000 C 
BRANCH  15  16
ATOM     16  C   UNL     1     -21.791  -6.427 -14.834  1.00  0.00    -0.000 C 
BRANCH  16  17
ATOM     17  C   UNL     1     -21.138  -5.941 -13.528  1.00  0.00    -0.000 C 
BRANCH  17  18
ATOM     18  C   UNL     1     -20.619  -7.100 -12.661  1.00  0.00    -0.000 C 
BRANCH  18  19
ATOM     19  C   UNL     1     -19.897  -8.176 -13.487  1.00  0.00    -0.003 C 
ATOM     20  C   UNL     1     -20.223  -9.597 -13.026  1.00  0.00     0.004 C 
ENDBRANCH  18  19
ENDBRANCH  17  18
ENDBRANCH  16  17
ENDBRANCH  15  16
ENDBRANCH  14  15
ENDBRANCH  13  14
ENDBRANCH  12  13
ENDBRANCH   1  12
TORSDOF 16
ENDMDL
