MODEL 1
REMARK VINA RESULT:    -7.475      0.000      0.000
REMARK INTER + INTRA:          -9.291
REMARK INTER:                  -9.223
REMARK INTRA:                  -0.068
REMARK UNBOUND:                -0.068
REMARK SMILES Oc1cc(O)c2cc(O)c(-c3cc(O)c(O)c(O)c3)[o+]c2c1
REMARK SMILES IDX 10 1 20 2 21 3 22 4 2 5 3 6 4 7 6 8 7 9 8 10 11 11 12 12
REMARK SMILES IDX 13 13 19 14 15 15 17 16 14 17 16 19 18 21 9 23 1 25 5 27
REMARK H PARENT 14 18 16 20 18 22 9 24 1 26 5 28
REMARK Flexibility Score: inf
ROOT
ATOM      1  C   UNL     1      24.284 -25.358  27.524  1.00  0.00     0.402 A 
ATOM      2  O   UNL     1      24.061 -25.888  26.325  1.00  0.00    -0.202 OA
ATOM      3  C   UNL     1      24.028 -25.174  25.205  1.00  0.00     0.368 A 
ATOM      4  C   UNL     1      23.790 -25.822  23.990  1.00  0.00     0.162 A 
ATOM      5  C   UNL     1      23.754 -25.095  22.797  1.00  0.00     0.128 A 
ATOM      6  C   UNL     1      23.957 -23.713  22.819  1.00  0.00     0.093 A 
ATOM      7  C   UNL     1      24.198 -23.040  24.023  1.00  0.00     0.136 A 
ATOM      8  C   UNL     1      24.234 -23.773  25.237  1.00  0.00     0.125 A 
ATOM      9  C   UNL     1      24.456 -23.180  26.490  1.00  0.00     0.078 A 
ATOM     10  C   UNL     1      24.472 -23.969  27.646  1.00  0.00     0.223 A 
ENDROOT
BRANCH   1  11
ATOM     11  C   UNL     1      24.307 -26.262  28.697  1.00  0.00     0.091 A 
ATOM     12  C   UNL     1      23.523 -26.006  29.833  1.00  0.00     0.068 A 
ATOM     13  C   UNL     1      23.576 -26.862  30.940  1.00  0.00     0.162 A 
ATOM     14  C   UNL     1      25.172 -27.366  28.700  1.00  0.00     0.068 A 
ATOM     15  C   UNL     1      24.423 -27.978  30.932  1.00  0.00     0.200 A 
ATOM     16  C   UNL     1      25.235 -28.230  29.799  1.00  0.00     0.162 A 
BRANCH  13  17
ATOM     17  O   UNL     1      22.789 -26.605  32.061  1.00  0.00    -0.504 OA
ATOM     18  H   UNL     1      22.998 -27.016  32.963  1.00  0.00     0.293 HD
ENDBRANCH  13  17
BRANCH  15  19
ATOM     19  O   UNL     1      24.432 -28.804  32.060  1.00  0.00    -0.502 OA
ATOM     20  H   UNL     1      25.106 -29.540  32.217  1.00  0.00     0.293 HD
ENDBRANCH  15  19
BRANCH  16  21
ATOM     21  O   UNL     1      26.110 -29.315  29.724  1.00  0.00    -0.504 OA
ATOM     22  H   UNL     1      25.829 -30.278  29.840  1.00  0.00     0.293 HD
ENDBRANCH  16  21
ENDBRANCH   1  11
BRANCH  10  23
ATOM     23  O   UNL     1      24.642 -23.374  28.896  1.00  0.00    -0.500 OA
ATOM     24  H   UNL     1      24.029 -23.588  29.675  1.00  0.00     0.294 HD
ENDBRANCH  10  23
BRANCH   5  25
ATOM     25  O   UNL     1      23.516 -25.735  21.583  1.00  0.00    -0.507 OA
ATOM     26  H   UNL     1      23.106 -26.661  21.543  1.00  0.00     0.293 HD
ENDBRANCH   5  25
BRANCH   7  27
ATOM     27  O   UNL     1      24.395 -21.657  23.959  1.00  0.00    -0.507 OA
ATOM     28  H   UNL     1      25.266 -21.194  24.173  1.00  0.00     0.293 HD
ENDBRANCH   7  27
TORSDOF 7
ENDMDL
MODEL 2
REMARK VINA RESULT:    -7.392      1.514      2.459
REMARK INTER + INTRA:          -9.189
REMARK INTER:                  -8.805
REMARK INTRA:                  -0.383
REMARK UNBOUND:                -0.068
REMARK SMILES Oc1cc(O)c2cc(O)c(-c3cc(O)c(O)c(O)c3)[o+]c2c1
REMARK SMILES IDX 10 1 20 2 21 3 22 4 2 5 3 6 4 7 6 8 7 9 8 10 11 11 12 12
REMARK SMILES IDX 13 13 19 14 15 15 17 16 14 17 16 19 18 21 9 23 1 25 5 27
REMARK H PARENT 14 18 16 20 18 22 9 24 1 26 5 28
REMARK Flexibility Score: inf
ROOT
ATOM      1  C   UNL     1      23.829 -25.362  27.714  1.00  0.00     0.402 A 
ATOM      2  O   UNL     1      24.935 -24.685  27.418  1.00  0.00    -0.202 OA
ATOM      3  C   UNL     1      25.083 -23.979  26.302  1.00  0.00     0.368 A 
ATOM      4  C   UNL     1      26.283 -23.299  26.081  1.00  0.00     0.162 A 
ATOM      5  C   UNL     1      26.464 -22.546  24.917  1.00  0.00     0.128 A 
ATOM      6  C   UNL     1      25.440 -22.475  23.969  1.00  0.00     0.093 A 
ATOM      7  C   UNL     1      24.228 -23.148  24.167  1.00  0.00     0.136 A 
ATOM      8  C   UNL     1      24.041 -23.914  25.346  1.00  0.00     0.125 A 
ATOM      9  C   UNL     1      22.865 -24.631  25.621  1.00  0.00     0.078 A 
ATOM     10  C   UNL     1      22.755 -25.370  26.804  1.00  0.00     0.223 A 
ENDROOT
BRANCH   1  11
ATOM     11  C   UNL     1      23.781 -26.102  28.996  1.00  0.00     0.091 A 
ATOM     12  C   UNL     1      23.249 -25.520  30.157  1.00  0.00     0.068 A 
ATOM     13  C   UNL     1      23.234 -26.230  31.364  1.00  0.00     0.162 A 
ATOM     14  C   UNL     1      24.330 -27.390  29.068  1.00  0.00     0.068 A 
ATOM     15  C   UNL     1      23.761 -27.527  31.429  1.00  0.00     0.200 A 
ATOM     16  C   UNL     1      24.321 -28.112  30.268  1.00  0.00     0.162 A 
BRANCH  13  17
ATOM     17  O   UNL     1      22.697 -25.648  32.511  1.00  0.00    -0.504 OA
ATOM     18  H   UNL     1      21.713 -25.417  32.579  1.00  0.00     0.293 HD
ENDBRANCH  13  17
BRANCH  15  19
ATOM     19  O   UNL     1      23.714 -28.194  32.657  1.00  0.00    -0.502 OA
ATOM     20  H   UNL     1      24.063 -27.810  33.523  1.00  0.00     0.293 HD
ENDBRANCH  15  19
BRANCH  16  21
ATOM     21  O   UNL     1      24.874 -29.394  30.260  1.00  0.00    -0.504 OA
ATOM     22  H   UNL     1      24.578 -30.141  30.870  1.00  0.00     0.293 HD
ENDBRANCH  16  21
ENDBRANCH   1  11
BRANCH  10  23
ATOM     23  O   UNL     1      21.608 -26.122  27.055  1.00  0.00    -0.500 OA
ATOM     24  H   UNL     1      21.613 -27.135  27.004  1.00  0.00     0.294 HD
ENDBRANCH  10  23
BRANCH   5  25
ATOM     25  O   UNL     1      27.658 -21.865  24.691  1.00  0.00    -0.507 OA
ATOM     26  H   UNL     1      27.884 -21.477  23.782  1.00  0.00     0.293 HD
ENDBRANCH   5  25
BRANCH   7  27
ATOM     27  O   UNL     1      23.253 -23.023  23.172  1.00  0.00    -0.507 OA
ATOM     28  H   UNL     1      22.977 -23.766  22.548  1.00  0.00     0.293 HD
ENDBRANCH   7  27
TORSDOF 7
ENDMDL
MODEL 3
REMARK VINA RESULT:    -7.384      4.308      6.668
REMARK INTER + INTRA:          -9.178
REMARK INTER:                  -8.887
REMARK INTRA:                  -0.291
REMARK UNBOUND:                -0.068
REMARK SMILES Oc1cc(O)c2cc(O)c(-c3cc(O)c(O)c(O)c3)[o+]c2c1
REMARK SMILES IDX 10 1 20 2 21 3 22 4 2 5 3 6 4 7 6 8 7 9 8 10 11 11 12 12
REMARK SMILES IDX 13 13 19 14 15 15 17 16 14 17 16 19 18 21 9 23 1 25 5 27
REMARK H PARENT 14 18 16 20 18 22 9 24 1 26 5 28
REMARK Flexibility Score: inf
ROOT
ATOM      1  C   UNL     1      27.075 -23.221  24.122  1.00  0.00     0.402 A 
ATOM      2  O   UNL     1      27.138 -21.898  24.250  1.00  0.00    -0.202 OA
ATOM      3  C   UNL     1      28.185 -21.176  23.867  1.00  0.00     0.368 A 
ATOM      4  C   UNL     1      28.156 -19.790  24.040  1.00  0.00     0.162 A 
ATOM      5  C   UNL     1      29.243 -19.005  23.643  1.00  0.00     0.128 A 
ATOM      6  C   UNL     1      30.364 -19.611  23.070  1.00  0.00     0.093 A 
ATOM      7  C   UNL     1      30.418 -20.998  22.885  1.00  0.00     0.136 A 
ATOM      8  C   UNL     1      29.318 -21.798  23.289  1.00  0.00     0.125 A 
ATOM      9  C   UNL     1      29.290 -23.196  23.154  1.00  0.00     0.078 A 
ATOM     10  C   UNL     1      28.171 -23.919  23.580  1.00  0.00     0.223 A 
ENDROOT
BRANCH   1  11
ATOM     11  C   UNL     1      25.848 -23.913  24.577  1.00  0.00     0.091 A 
ATOM     12  C   UNL     1      24.978 -24.533  23.668  1.00  0.00     0.068 A 
ATOM     13  C   UNL     1      23.811 -25.162  24.117  1.00  0.00     0.162 A 
ATOM     14  C   UNL     1      25.515 -23.900  25.940  1.00  0.00     0.068 A 
ATOM     15  C   UNL     1      23.492 -25.170  25.483  1.00  0.00     0.200 A 
ATOM     16  C   UNL     1      24.353 -24.527  26.404  1.00  0.00     0.162 A 
BRANCH  13  17
ATOM     17  O   UNL     1      22.955 -25.782  23.208  1.00  0.00    -0.504 OA
ATOM     18  H   UNL     1      21.978 -25.942  23.422  1.00  0.00     0.293 HD
ENDBRANCH  13  17
BRANCH  15  19
ATOM     19  O   UNL     1      22.319 -25.819  25.879  1.00  0.00    -0.502 OA
ATOM     20  H   UNL     1      21.390 -25.455  25.723  1.00  0.00     0.293 HD
ENDBRANCH  15  19
BRANCH  16  21
ATOM     21  O   UNL     1      24.094 -24.484  27.775  1.00  0.00    -0.504 OA
ATOM     22  H   UNL     1      24.747 -24.137  28.463  1.00  0.00     0.293 HD
ENDBRANCH  16  21
ENDBRANCH   1  11
BRANCH  10  23
ATOM     23  O   UNL     1      28.163 -25.311  23.493  1.00  0.00    -0.500 OA
ATOM     24  H   UNL     1      29.020 -25.843  23.391  1.00  0.00     0.294 HD
ENDBRANCH  10  23
BRANCH   5  25
ATOM     25  O   UNL     1      29.220 -17.623  23.813  1.00  0.00    -0.507 OA
ATOM     26  H   UNL     1      30.028 -17.049  23.603  1.00  0.00     0.293 HD
ENDBRANCH   5  25
BRANCH   7  27
ATOM     27  O   UNL     1      31.574 -21.525  22.301  1.00  0.00    -0.507 OA
ATOM     28  H   UNL     1      31.651 -22.461  21.934  1.00  0.00     0.293 HD
ENDBRANCH   7  27
TORSDOF 7
ENDMDL
MODEL 4
REMARK VINA RESULT:    -7.232      3.320      7.131
REMARK INTER + INTRA:          -8.991
REMARK INTER:                  -8.611
REMARK INTRA:                  -0.380
REMARK UNBOUND:                -0.068
REMARK SMILES Oc1cc(O)c2cc(O)c(-c3cc(O)c(O)c(O)c3)[o+]c2c1
REMARK SMILES IDX 10 1 20 2 21 3 22 4 2 5 3 6 4 7 6 8 7 9 8 10 11 11 12 12
REMARK SMILES IDX 13 13 19 14 15 15 17 16 14 17 16 19 18 21 9 23 1 25 5 27
REMARK H PARENT 14 18 16 20 18 22 9 24 1 26 5 28
REMARK Flexibility Score: inf
ROOT
ATOM      1  C   UNL     1      25.569 -23.840  24.836  1.00  0.00     0.402 A 
ATOM      2  O   UNL     1      25.481 -24.172  26.121  1.00  0.00    -0.202 OA
ATOM      3  C   UNL     1      24.398 -24.722  26.660  1.00  0.00     0.368 A 
ATOM      4  C   UNL     1      24.401 -25.040  28.020  1.00  0.00     0.162 A 
ATOM      5  C   UNL     1      23.277 -25.622  28.613  1.00  0.00     0.128 A 
ATOM      6  C   UNL     1      22.144 -25.888  27.840  1.00  0.00     0.093 A 
ATOM      7  C   UNL     1      22.115 -25.579  26.474  1.00  0.00     0.136 A 
ATOM      8  C   UNL     1      23.253 -24.987  25.870  1.00  0.00     0.125 A 
ATOM      9  C   UNL     1      23.309 -24.633  24.512  1.00  0.00     0.078 A 
ATOM     10  C   UNL     1      24.466 -24.046  23.987  1.00  0.00     0.223 A 
ENDROOT
BRANCH   1  11
ATOM     11  C   UNL     1      26.835 -23.243  24.351  1.00  0.00     0.091 A 
ATOM     12  C   UNL     1      27.032 -21.854  24.342  1.00  0.00     0.068 A 
ATOM     13  C   UNL     1      28.228 -21.309  23.859  1.00  0.00     0.162 A 
ATOM     14  C   UNL     1      27.838 -24.078  23.836  1.00  0.00     0.068 A 
ATOM     15  C   UNL     1      29.239 -22.146  23.367  1.00  0.00     0.200 A 
ATOM     16  C   UNL     1      29.039 -23.548  23.352  1.00  0.00     0.162 A 
BRANCH  13  17
ATOM     17  O   UNL     1      28.418 -19.928  23.859  1.00  0.00    -0.504 OA
ATOM     18  H   UNL     1      29.328 -19.517  24.031  1.00  0.00     0.293 HD
ENDBRANCH  13  17
BRANCH  15  19
ATOM     19  O   UNL     1      30.416 -21.551  22.904  1.00  0.00    -0.502 OA
ATOM     20  H   UNL     1      31.281 -21.527  23.425  1.00  0.00     0.293 HD
ENDBRANCH  15  19
BRANCH  16  21
ATOM     21  O   UNL     1      29.996 -24.441  22.866  1.00  0.00    -0.504 OA
ATOM     22  H   UNL     1      30.110 -24.672  21.890  1.00  0.00     0.293 HD
ENDBRANCH  16  21
ENDBRANCH   1  11
BRANCH  10  23
ATOM     23  O   UNL     1      24.504 -23.649  22.651  1.00  0.00    -0.500 OA
ATOM     24  H   UNL     1      24.846 -24.264  21.921  1.00  0.00     0.294 HD
ENDBRANCH  10  23
BRANCH   5  25
ATOM     25  O   UNL     1      23.274 -25.940  29.969  1.00  0.00    -0.507 OA
ATOM     26  H   UNL     1      22.473 -25.744  30.558  1.00  0.00     0.293 HD
ENDBRANCH   5  25
BRANCH   7  27
ATOM     27  O   UNL     1      20.945 -25.881  25.771  1.00  0.00    -0.507 OA
ATOM     28  H   UNL     1      20.012 -25.750  26.134  1.00  0.00     0.293 HD
ENDBRANCH   7  27
TORSDOF 7
ENDMDL
MODEL 5
REMARK VINA RESULT:    -7.207      1.243      7.018
REMARK INTER + INTRA:          -8.960
REMARK INTER:                  -8.787
REMARK INTRA:                  -0.174
REMARK UNBOUND:                -0.068
REMARK SMILES Oc1cc(O)c2cc(O)c(-c3cc(O)c(O)c(O)c3)[o+]c2c1
REMARK SMILES IDX 10 1 20 2 21 3 22 4 2 5 3 6 4 7 6 8 7 9 8 10 11 11 12 12
REMARK SMILES IDX 13 13 19 14 15 15 17 16 14 17 16 19 18 21 9 23 1 25 5 27
REMARK H PARENT 14 18 16 20 18 22 9 24 1 26 5 28
REMARK Flexibility Score: inf
ROOT
ATOM      1  C   UNL     1      23.459 -25.250  27.473  1.00  0.00     0.402 A 
ATOM      2  O   UNL     1      24.267 -26.224  27.884  1.00  0.00    -0.202 OA
ATOM      3  C   UNL     1      24.248 -26.716  29.118  1.00  0.00     0.368 A 
ATOM      4  C   UNL     1      25.135 -27.742  29.455  1.00  0.00     0.162 A 
ATOM      5  C   UNL     1      25.134 -28.281  30.745  1.00  0.00     0.128 A 
ATOM      6  C   UNL     1      24.243 -27.791  31.702  1.00  0.00     0.093 A 
ATOM      7  C   UNL     1      23.344 -26.764  31.390  1.00  0.00     0.136 A 
ATOM      8  C   UNL     1      23.342 -26.213  30.082  1.00  0.00     0.125 A 
ATOM      9  C   UNL     1      22.486 -25.173  29.685  1.00  0.00     0.078 A 
ATOM     10  C   UNL     1      22.546 -24.676  28.378  1.00  0.00     0.223 A 
ENDROOT
BRANCH   1  11
ATOM     11  C   UNL     1      23.568 -24.794  26.069  1.00  0.00     0.091 A 
ATOM     12  C   UNL     1      23.903 -23.467  25.755  1.00  0.00     0.068 A 
ATOM     13  C   UNL     1      23.979 -23.051  24.420  1.00  0.00     0.162 A 
ATOM     14  C   UNL     1      23.275 -25.688  25.029  1.00  0.00     0.068 A 
ATOM     15  C   UNL     1      23.711 -23.952  23.381  1.00  0.00     0.200 A 
ATOM     16  C   UNL     1      23.349 -25.286  23.690  1.00  0.00     0.162 A 
BRANCH  13  17
ATOM     17  O   UNL     1      24.320 -21.734  24.117  1.00  0.00    -0.504 OA
ATOM     18  H   UNL     1      25.283 -21.452  23.978  1.00  0.00     0.293 HD
ENDBRANCH  13  17
BRANCH  15  19
ATOM     19  O   UNL     1      23.809 -23.487  22.067  1.00  0.00    -0.502 OA
ATOM     20  H   UNL     1      24.214 -22.598  21.810  1.00  0.00     0.293 HD
ENDBRANCH  15  19
BRANCH  16  21
ATOM     21  O   UNL     1      23.056 -26.235  22.709  1.00  0.00    -0.504 OA
ATOM     22  H   UNL     1      23.697 -26.956  22.410  1.00  0.00     0.293 HD
ENDBRANCH  16  21
ENDBRANCH   1  11
BRANCH  10  23
ATOM     23  O   UNL     1      21.731 -23.611  27.997  1.00  0.00    -0.500 OA
ATOM     24  H   UNL     1      21.458 -22.887  28.652  1.00  0.00     0.294 HD
ENDBRANCH  10  23
BRANCH   5  25
ATOM     25  O   UNL     1      26.016 -29.304  31.087  1.00  0.00    -0.507 OA
ATOM     26  H   UNL     1      26.721 -29.179  31.804  1.00  0.00     0.293 HD
ENDBRANCH   5  25
BRANCH   7  27
ATOM     27  O   UNL     1      22.482 -26.333  32.403  1.00  0.00    -0.507 OA
ATOM     28  H   UNL     1      22.663 -25.546  33.008  1.00  0.00     0.293 HD
ENDBRANCH   7  27
TORSDOF 7
ENDMDL
MODEL 6
REMARK VINA RESULT:    -7.117      4.405      7.180
REMARK INTER + INTRA:          -8.849
REMARK INTER:                  -8.530
REMARK INTRA:                  -0.319
REMARK UNBOUND:                -0.068
REMARK SMILES Oc1cc(O)c2cc(O)c(-c3cc(O)c(O)c(O)c3)[o+]c2c1
REMARK SMILES IDX 10 1 20 2 21 3 22 4 2 5 3 6 4 7 6 8 7 9 8 10 11 11 12 12
REMARK SMILES IDX 13 13 19 14 15 15 17 16 14 17 16 19 18 21 9 23 1 25 5 27
REMARK H PARENT 14 18 16 20 18 22 9 24 1 26 5 28
REMARK Flexibility Score: inf
ROOT
ATOM      1  C   UNL     1      22.500 -21.464  27.202  1.00  0.00     0.402 A 
ATOM      2  O   UNL     1      21.786 -20.385  26.892  1.00  0.00    -0.202 OA
ATOM      3  C   UNL     1      21.735 -19.300  27.657  1.00  0.00     0.368 A 
ATOM      4  C   UNL     1      20.958 -18.213  27.245  1.00  0.00     0.162 A 
ATOM      5  C   UNL     1      20.889 -17.057  28.028  1.00  0.00     0.128 A 
ATOM      6  C   UNL     1      21.599 -16.988  29.229  1.00  0.00     0.093 A 
ATOM      7  C   UNL     1      22.385 -18.063  29.664  1.00  0.00     0.136 A 
ATOM      8  C   UNL     1      22.457 -19.239  28.873  1.00  0.00     0.125 A 
ATOM      9  C   UNL     1      23.208 -20.368  29.237  1.00  0.00     0.078 A 
ATOM     10  C   UNL     1      23.226 -21.495  28.408  1.00  0.00     0.223 A 
ENDROOT
BRANCH   1  11
ATOM     11  C   UNL     1      22.485 -22.609  26.262  1.00  0.00     0.091 A 
ATOM     12  C   UNL     1      21.746 -23.770  26.535  1.00  0.00     0.068 A 
ATOM     13  C   UNL     1      21.764 -24.849  25.644  1.00  0.00     0.162 A 
ATOM     14  C   UNL     1      23.271 -22.557  25.102  1.00  0.00     0.068 A 
ATOM     15  C   UNL     1      22.530 -24.787  24.472  1.00  0.00     0.200 A 
ATOM     16  C   UNL     1      23.297 -23.628  24.200  1.00  0.00     0.162 A 
BRANCH  13  17
ATOM     17  O   UNL     1      21.021 -25.996  25.919  1.00  0.00    -0.504 OA
ATOM     18  H   UNL     1      20.196 -25.967  26.506  1.00  0.00     0.293 HD
ENDBRANCH  13  17
BRANCH  15  19
ATOM     19  O   UNL     1      22.506 -25.889  23.612  1.00  0.00    -0.502 OA
ATOM     20  H   UNL     1      23.332 -26.318  23.220  1.00  0.00     0.293 HD
ENDBRANCH  15  19
BRANCH  16  21
ATOM     21  O   UNL     1      24.093 -23.499  23.060  1.00  0.00    -0.504 OA
ATOM     22  H   UNL     1      23.913 -23.976  22.189  1.00  0.00     0.293 HD
ENDBRANCH  16  21
ENDBRANCH   1  11
BRANCH  10  23
ATOM     23  O   UNL     1      23.931 -22.635  28.792  1.00  0.00    -0.500 OA
ATOM     24  H   UNL     1      24.121 -22.841  29.766  1.00  0.00     0.294 HD
ENDBRANCH  10  23
BRANCH   5  25
ATOM     25  O   UNL     1      20.117 -15.971  27.623  1.00  0.00    -0.507 OA
ATOM     26  H   UNL     1      19.954 -15.773  26.643  1.00  0.00     0.293 HD
ENDBRANCH   5  25
BRANCH   7  27
ATOM     27  O   UNL     1      23.067 -17.912  30.875  1.00  0.00    -0.507 OA
ATOM     28  H   UNL     1      24.072 -17.871  30.962  1.00  0.00     0.293 HD
ENDBRANCH   7  27
TORSDOF 7
ENDMDL
MODEL 7
REMARK VINA RESULT:    -7.027      1.890      7.125
REMARK INTER + INTRA:          -8.738
REMARK INTER:                  -8.354
REMARK INTRA:                  -0.384
REMARK UNBOUND:                -0.068
REMARK SMILES Oc1cc(O)c2cc(O)c(-c3cc(O)c(O)c(O)c3)[o+]c2c1
REMARK SMILES IDX 10 1 20 2 21 3 22 4 2 5 3 6 4 7 6 8 7 9 8 10 11 11 12 12
REMARK SMILES IDX 13 13 19 14 15 15 17 16 14 17 16 19 18 21 9 23 1 25 5 27
REMARK H PARENT 14 18 16 20 18 22 9 24 1 26 5 28
REMARK Flexibility Score: inf
ROOT
ATOM      1  C   UNL     1      23.441 -25.020  27.658  1.00  0.00     0.402 A 
ATOM      2  O   UNL     1      22.267 -24.822  28.253  1.00  0.00    -0.202 OA
ATOM      3  C   UNL     1      22.053 -25.058  29.543  1.00  0.00     0.368 A 
ATOM      4  C   UNL     1      20.785 -24.815  30.077  1.00  0.00     0.162 A 
ATOM      5  C   UNL     1      20.533 -25.051  31.432  1.00  0.00     0.128 A 
ATOM      6  C   UNL     1      21.553 -25.532  32.255  1.00  0.00     0.093 A 
ATOM      7  C   UNL     1      22.832 -25.783  31.744  1.00  0.00     0.136 A 
ATOM      8  C   UNL     1      23.092 -25.547  30.369  1.00  0.00     0.125 A 
ATOM      9  C   UNL     1      24.340 -25.783  29.768  1.00  0.00     0.078 A 
ATOM     10  C   UNL     1      24.520 -25.531  28.404  1.00  0.00     0.223 A 
ENDROOT
BRANCH   1  11
ATOM     11  C   UNL     1      23.558 -24.710  26.215  1.00  0.00     0.091 A 
ATOM     12  C   UNL     1      23.937 -23.434  25.770  1.00  0.00     0.068 A 
ATOM     13  C   UNL     1      24.020 -23.155  24.400  1.00  0.00     0.162 A 
ATOM     14  C   UNL     1      23.227 -25.692  25.270  1.00  0.00     0.068 A 
ATOM     15  C   UNL     1      23.713 -24.145  23.457  1.00  0.00     0.200 A 
ATOM     16  C   UNL     1      23.307 -25.428  23.898  1.00  0.00     0.162 A 
BRANCH  13  17
ATOM     17  O   UNL     1      24.404 -21.888  23.966  1.00  0.00    -0.504 OA
ATOM     18  H   UNL     1      24.706 -21.721  23.014  1.00  0.00     0.293 HD
ENDBRANCH  13  17
BRANCH  15  19
ATOM     19  O   UNL     1      23.819 -23.817  22.102  1.00  0.00    -0.502 OA
ATOM     20  H   UNL     1      23.768 -24.490  21.351  1.00  0.00     0.293 HD
ENDBRANCH  15  19
BRANCH  16  21
ATOM     21  O   UNL     1      22.974 -26.459  23.017  1.00  0.00    -0.504 OA
ATOM     22  H   UNL     1      22.166 -27.054  23.122  1.00  0.00     0.293 HD
ENDBRANCH  16  21
ENDBRANCH   1  11
BRANCH  10  23
ATOM     23  O   UNL     1      25.743 -25.811  27.796  1.00  0.00    -0.500 OA
ATOM     24  H   UNL     1      26.281 -26.637  28.037  1.00  0.00     0.294 HD
ENDBRANCH  10  23
BRANCH   5  25
ATOM     25  O   UNL     1      19.270 -24.811  31.971  1.00  0.00    -0.507 OA
ATOM     26  H   UNL     1      18.707 -25.560  32.356  1.00  0.00     0.293 HD
ENDBRANCH   5  25
BRANCH   7  27
ATOM     27  O   UNL     1      23.799 -26.261  32.634  1.00  0.00    -0.507 OA
ATOM     28  H   UNL     1      24.710 -25.845  32.763  1.00  0.00     0.293 HD
ENDBRANCH   7  27
TORSDOF 7
ENDMDL
MODEL 8
REMARK VINA RESULT:    -7.011      2.523      7.421
REMARK INTER + INTRA:          -8.718
REMARK INTER:                  -8.371
REMARK INTRA:                  -0.347
REMARK UNBOUND:                -0.068
REMARK SMILES Oc1cc(O)c2cc(O)c(-c3cc(O)c(O)c(O)c3)[o+]c2c1
REMARK SMILES IDX 10 1 20 2 21 3 22 4 2 5 3 6 4 7 6 8 7 9 8 10 11 11 12 12
REMARK SMILES IDX 13 13 19 14 15 15 17 16 14 17 16 19 18 21 9 23 1 25 5 27
REMARK H PARENT 14 18 16 20 18 22 9 24 1 26 5 28
REMARK Flexibility Score: inf
ROOT
ATOM      1  C   UNL     1      23.717 -26.058  28.773  1.00  0.00     0.402 A 
ATOM      2  O   UNL     1      23.251 -26.197  30.011  1.00  0.00    -0.202 OA
ATOM      3  C   UNL     1      23.785 -27.023  30.904  1.00  0.00     0.368 A 
ATOM      4  C   UNL     1      23.225 -27.097  32.182  1.00  0.00     0.162 A 
ATOM      5  C   UNL     1      23.769 -27.955  33.142  1.00  0.00     0.128 A 
ATOM      6  C   UNL     1      24.877 -28.743  32.822  1.00  0.00     0.093 A 
ATOM      7  C   UNL     1      25.457 -28.687  31.549  1.00  0.00     0.136 A 
ATOM      8  C   UNL     1      24.907 -27.819  30.570  1.00  0.00     0.125 A 
ATOM      9  C   UNL     1      25.414 -27.707  29.265  1.00  0.00     0.078 A 
ATOM     10  C   UNL     1      24.815 -26.832  28.353  1.00  0.00     0.223 A 
ENDROOT
BRANCH   1  11
ATOM     11  C   UNL     1      23.042 -25.096  27.872  1.00  0.00     0.091 A 
ATOM     12  C   UNL     1      23.276 -23.715  27.969  1.00  0.00     0.068 A 
ATOM     13  C   UNL     1      22.609 -22.821  27.123  1.00  0.00     0.162 A 
ATOM     14  C   UNL     1      22.105 -25.565  26.940  1.00  0.00     0.068 A 
ATOM     15  C   UNL     1      21.691 -23.294  26.175  1.00  0.00     0.200 A 
ATOM     16  C   UNL     1      21.433 -24.683  26.086  1.00  0.00     0.162 A 
BRANCH  13  17
ATOM     17  O   UNL     1      22.852 -21.452  27.221  1.00  0.00    -0.504 OA
ATOM     18  H   UNL     1      22.444 -20.891  27.959  1.00  0.00     0.293 HD
ENDBRANCH  13  17
BRANCH  15  19
ATOM     19  O   UNL     1      21.060 -22.359  25.349  1.00  0.00    -0.502 OA
ATOM     20  H   UNL     1      20.093 -22.083  25.443  1.00  0.00     0.293 HD
ENDBRANCH  15  19
BRANCH  16  21
ATOM     21  O   UNL     1      20.524 -25.225  25.176  1.00  0.00    -0.504 OA
ATOM     22  H   UNL     1      20.369 -26.215  25.053  1.00  0.00     0.293 HD
ENDBRANCH  16  21
ENDBRANCH   1  11
BRANCH  10  23
ATOM     23  O   UNL     1      25.287 -26.757  27.043  1.00  0.00    -0.500 OA
ATOM     24  H   UNL     1      26.066 -27.322  26.724  1.00  0.00     0.294 HD
ENDBRANCH  10  23
BRANCH   5  25
ATOM     25  O   UNL     1      23.215 -28.034  34.418  1.00  0.00    -0.507 OA
ATOM     26  H   UNL     1      22.223 -28.189  34.557  1.00  0.00     0.293 HD
ENDBRANCH   5  25
BRANCH   7  27
ATOM     27  O   UNL     1      26.566 -29.504  31.310  1.00  0.00    -0.507 OA
ATOM     28  H   UNL     1      27.123 -29.478  30.468  1.00  0.00     0.293 HD
ENDBRANCH   7  27
TORSDOF 7
ENDMDL
MODEL 9
REMARK VINA RESULT:    -6.994      4.444      7.002
REMARK INTER + INTRA:          -8.697
REMARK INTER:                  -8.333
REMARK INTRA:                  -0.364
REMARK UNBOUND:                -0.068
REMARK SMILES Oc1cc(O)c2cc(O)c(-c3cc(O)c(O)c(O)c3)[o+]c2c1
REMARK SMILES IDX 10 1 20 2 21 3 22 4 2 5 3 6 4 7 6 8 7 9 8 10 11 11 12 12
REMARK SMILES IDX 13 13 19 14 15 15 17 16 14 17 16 19 18 21 9 23 1 25 5 27
REMARK H PARENT 14 18 16 20 18 22 9 24 1 26 5 28
REMARK Flexibility Score: inf
ROOT
ATOM      1  C   UNL     1      22.864 -21.359  28.104  1.00  0.00     0.402 A 
ATOM      2  O   UNL     1      23.481 -21.029  29.235  1.00  0.00    -0.202 OA
ATOM      3  C   UNL     1      23.353 -19.842  29.818  1.00  0.00     0.368 A 
ATOM      4  C   UNL     1      24.041 -19.591  31.008  1.00  0.00     0.162 A 
ATOM      5  C   UNL     1      23.921 -18.352  31.645  1.00  0.00     0.128 A 
ATOM      6  C   UNL     1      23.111 -17.360  31.088  1.00  0.00     0.093 A 
ATOM      7  C   UNL     1      22.411 -17.587  29.896  1.00  0.00     0.136 A 
ATOM      8  C   UNL     1      22.531 -18.842  29.246  1.00  0.00     0.125 A 
ATOM      9  C   UNL     1      21.877 -19.153  28.042  1.00  0.00     0.078 A 
ATOM     10  C   UNL     1      22.048 -20.412  27.457  1.00  0.00     0.223 A 
ENDROOT
BRANCH   1  11
ATOM     11  C   UNL     1      23.078 -22.718  27.558  1.00  0.00     0.091 A 
ATOM     12  C   UNL     1      22.126 -23.734  27.730  1.00  0.00     0.068 A 
ATOM     13  C   UNL     1      22.358 -25.019  27.225  1.00  0.00     0.162 A 
ATOM     14  C   UNL     1      24.283 -23.016  26.905  1.00  0.00     0.068 A 
ATOM     15  C   UNL     1      23.553 -25.309  26.550  1.00  0.00     0.200 A 
ATOM     16  C   UNL     1      24.529 -24.296  26.393  1.00  0.00     0.162 A 
BRANCH  13  17
ATOM     17  O   UNL     1      21.404 -26.021  27.393  1.00  0.00    -0.504 OA
ATOM     18  H   UNL     1      21.447 -26.889  26.873  1.00  0.00     0.293 HD
ENDBRANCH  13  17
BRANCH  15  19
ATOM     19  O   UNL     1      23.731 -26.605  26.059  1.00  0.00    -0.502 OA
ATOM     20  H   UNL     1      23.622 -27.441  26.615  1.00  0.00     0.293 HD
ENDBRANCH  15  19
BRANCH  16  21
ATOM     21  O   UNL     1      25.745 -24.514  25.744  1.00  0.00    -0.504 OA
ATOM     22  H   UNL     1      26.599 -24.773  26.215  1.00  0.00     0.293 HD
ENDBRANCH  16  21
ENDBRANCH   1  11
BRANCH  10  23
ATOM     23  O   UNL     1      21.439 -20.704  26.237  1.00  0.00    -0.500 OA
ATOM     24  H   UNL     1      21.971 -21.048  25.445  1.00  0.00     0.294 HD
ENDBRANCH  10  23
BRANCH   5  25
ATOM     25  O   UNL     1      24.605 -18.095  32.832  1.00  0.00    -0.507 OA
ATOM     26  H   UNL     1      24.246 -18.405  33.727  1.00  0.00     0.293 HD
ENDBRANCH   5  25
BRANCH   7  27
ATOM     27  O   UNL     1      21.618 -16.544  29.407  1.00  0.00    -0.507 OA
ATOM     28  H   UNL     1      21.369 -16.425  28.436  1.00  0.00     0.293 HD
ENDBRANCH   7  27
TORSDOF 7
ENDMDL
