MODEL 1
REMARK VINA RESULT:    -4.657      0.000      0.000
REMARK INTER + INTRA:          -7.201
REMARK INTER:                  -6.290
REMARK INTRA:                  -0.910
REMARK UNBOUND:                -0.910
REMARK SMILES C=C[C@@](C)(CCC=C(C)C)OC(C)=O
REMARK SMILES IDX 3 1 4 2 5 3 6 4 7 5 9 6 8 7 10 8 2 9 1 10 11 11 12 12 14 13
REMARK SMILES IDX 13 14
REMARK H PARENT
REMARK Flexibility Score: inf
ROOT
ATOM      1  C   UNL     1     -21.007  -5.948  -8.439  1.00  0.00     0.127 C 
ATOM      2  C   UNL     1     -20.787  -7.476  -8.363  1.00  0.00     0.061 C 
ENDROOT
BRANCH   1   3
ATOM      3  C   UNL     1     -19.689  -5.222  -8.814  1.00  0.00     0.057 C 
BRANCH   3   4
ATOM      4  C   UNL     1     -19.545  -3.836  -8.160  1.00  0.00     0.032 C 
BRANCH   4   5
ATOM      5  C   UNL     1     -18.913  -2.857  -9.117  1.00  0.00    -0.028 C 
ATOM      6  C   UNL     1     -18.877  -1.118 -10.878  1.00  0.00     0.039 C 
ATOM      7  C   UNL     1     -19.610  -2.038  -9.938  1.00  0.00    -0.080 C 
ATOM      8  C   UNL     1     -21.118  -1.978  -9.917  1.00  0.00     0.039 C 
ENDBRANCH   4   5
ENDBRANCH   3   4
ENDBRANCH   1   3
BRANCH   1   9
ATOM      9  C   UNL     1     -22.063  -5.610  -9.483  1.00  0.00     0.013 C 
ATOM     10  C   UNL     1     -21.812  -5.591 -10.798  1.00  0.00     0.008 C 
ENDBRANCH   1   9
BRANCH   1  11
ATOM     11  O   UNL     1     -21.429  -5.453  -7.158  1.00  0.00    -0.455 OA
BRANCH  11  12
ATOM     12  C   UNL     1     -22.723  -5.017  -6.835  1.00  0.00     0.303 C 
ATOM     13  O   UNL     1     -23.599  -5.822  -6.420  1.00  0.00    -0.253 OA
ATOM     14  C   UNL     1     -23.053  -3.568  -6.954  1.00  0.00     0.139 C 
ENDBRANCH  11  12
ENDBRANCH   1  11
TORSDOF 6
ENDMDL
MODEL 2
REMARK VINA RESULT:    -4.593     13.924     15.454
REMARK INTER + INTRA:          -7.114
REMARK INTER:                  -6.147
REMARK INTRA:                  -0.967
REMARK UNBOUND:                -0.910
REMARK SMILES C=C[C@@](C)(CCC=C(C)C)OC(C)=O
REMARK SMILES IDX 3 1 4 2 5 3 6 4 7 5 9 6 8 7 10 8 2 9 1 10 11 11 12 12 14 13
REMARK SMILES IDX 13 14
REMARK H PARENT
REMARK Flexibility Score: inf
ROOT
ATOM      1  C   UNL     1     -35.852  -2.424  -9.449  1.00  0.00     0.127 C 
ATOM      2  C   UNL     1     -35.890  -2.269  -7.912  1.00  0.00     0.061 C 
ENDROOT
BRANCH   1   3
ATOM      3  C   UNL     1     -34.396  -2.620  -9.945  1.00  0.00     0.057 C 
BRANCH   3   4
ATOM      4  C   UNL     1     -34.237  -3.792 -10.930  1.00  0.00     0.032 C 
BRANCH   4   5
ATOM      5  C   UNL     1     -33.868  -3.289 -12.303  1.00  0.00    -0.028 C 
ATOM      6  C   UNL     1     -33.970  -3.177 -14.774  1.00  0.00     0.039 C 
ATOM      7  C   UNL     1     -34.434  -3.727 -13.451  1.00  0.00    -0.080 C 
ATOM      8  C   UNL     1     -35.561  -4.730 -13.456  1.00  0.00     0.039 C 
ENDBRANCH   4   5
ENDBRANCH   3   4
ENDBRANCH   1   3
BRANCH   1   9
ATOM      9  C   UNL     1     -36.682  -3.624  -9.887  1.00  0.00     0.013 C 
ATOM     10  C   UNL     1     -37.535  -4.259  -9.073  1.00  0.00     0.008 C 
ENDBRANCH   1   9
BRANCH   1  11
ATOM     11  O   UNL     1     -36.369  -1.237 -10.071  1.00  0.00    -0.455 OA
BRANCH  11  12
ATOM     12  C   UNL     1     -37.369  -1.197 -11.054  1.00  0.00     0.303 C 
ATOM     13  O   UNL     1     -38.588  -1.123 -10.744  1.00  0.00    -0.253 OA
ATOM     14  C   UNL     1     -36.977  -1.208 -12.492  1.00  0.00     0.139 C 
ENDBRANCH  11  12
ENDBRANCH   1  11
TORSDOF 6
ENDMDL
MODEL 3
REMARK VINA RESULT:    -4.543      1.858      4.967
REMARK INTER + INTRA:          -7.047
REMARK INTER:                  -6.275
REMARK INTRA:                  -0.773
REMARK UNBOUND:                -0.910
REMARK SMILES C=C[C@@](C)(CCC=C(C)C)OC(C)=O
REMARK SMILES IDX 3 1 4 2 5 3 6 4 7 5 9 6 8 7 10 8 2 9 1 10 11 11 12 12 14 13
REMARK SMILES IDX 13 14
REMARK H PARENT
REMARK Flexibility Score: inf
ROOT
ATOM      1  C   UNL     1     -21.150  -3.444  -9.023  1.00  0.00     0.127 C 
ATOM      2  C   UNL     1     -20.380  -3.361  -7.684  1.00  0.00     0.061 C 
ENDROOT
BRANCH   1   3
ATOM      3  C   UNL     1     -22.662  -3.680  -8.771  1.00  0.00     0.057 C 
BRANCH   3   4
ATOM      4  C   UNL     1     -23.044  -3.665  -7.281  1.00  0.00     0.032 C 
BRANCH   4   5
ATOM      5  C   UNL     1     -23.642  -4.988  -6.870  1.00  0.00    -0.028 C 
ATOM      6  C   UNL     1     -23.992  -6.957  -5.412  1.00  0.00     0.039 C 
ATOM      7  C   UNL     1     -23.361  -5.623  -5.710  1.00  0.00    -0.080 C 
ATOM      8  C   UNL     1     -22.458  -5.016  -4.664  1.00  0.00     0.039 C 
ENDBRANCH   4   5
ENDBRANCH   3   4
ENDBRANCH   1   3
BRANCH   1   9
ATOM      9  C   UNL     1     -20.983  -2.156  -9.817  1.00  0.00     0.013 C 
ATOM     10  C   UNL     1     -19.987  -1.959 -10.690  1.00  0.00     0.008 C 
ENDBRANCH   1   9
BRANCH   1  11
ATOM     11  O   UNL     1     -20.658  -4.548  -9.799  1.00  0.00    -0.455 OA
BRANCH  11  12
ATOM     12  C   UNL     1     -21.275  -5.803  -9.918  1.00  0.00     0.303 C 
ATOM     13  O   UNL     1     -21.990  -6.087 -10.916  1.00  0.00    -0.253 OA
ATOM     14  C   UNL     1     -21.051  -6.828  -8.859  1.00  0.00     0.139 C 
ENDBRANCH  11  12
ENDBRANCH   1  11
TORSDOF 6
ENDMDL
MODEL 4
REMARK VINA RESULT:    -4.455      1.519      4.150
REMARK INTER + INTRA:          -6.928
REMARK INTER:                  -6.115
REMARK INTRA:                  -0.813
REMARK UNBOUND:                -0.910
REMARK SMILES C=C[C@@](C)(CCC=C(C)C)OC(C)=O
REMARK SMILES IDX 3 1 4 2 5 3 6 4 7 5 9 6 8 7 10 8 2 9 1 10 11 11 12 12 14 13
REMARK SMILES IDX 13 14
REMARK H PARENT
REMARK Flexibility Score: inf
ROOT
ATOM      1  C   UNL     1     -20.658  -2.788  -9.431  1.00  0.00     0.127 C 
ATOM      2  C   UNL     1     -20.693  -3.712 -10.670  1.00  0.00     0.061 C 
ENDROOT
BRANCH   1   3
ATOM      3  C   UNL     1     -19.761  -3.393  -8.321  1.00  0.00     0.057 C 
BRANCH   3   4
ATOM      4  C   UNL     1     -19.278  -4.820  -8.634  1.00  0.00     0.032 C 
BRANCH   4   5
ATOM      5  C   UNL     1     -19.881  -5.811  -7.670  1.00  0.00    -0.028 C 
ATOM      6  C   UNL     1     -21.160  -7.820  -6.995  1.00  0.00     0.039 C 
ATOM      7  C   UNL     1     -20.574  -6.911  -8.043  1.00  0.00    -0.080 C 
ATOM      8  C   UNL     1     -20.749  -7.293  -9.492  1.00  0.00     0.039 C 
ENDBRANCH   4   5
ENDBRANCH   3   4
ENDBRANCH   1   3
BRANCH   1   9
ATOM      9  C   UNL     1     -20.115  -1.415  -9.803  1.00  0.00     0.013 C 
ATOM     10  C   UNL     1     -18.962  -1.238 -10.460  1.00  0.00     0.008 C 
ENDBRANCH   1   9
BRANCH   1  11
ATOM     11  O   UNL     1     -21.983  -2.646  -8.894  1.00  0.00    -0.455 OA
BRANCH  11  12
ATOM     12  C   UNL     1     -22.739  -3.668  -8.301  1.00  0.00     0.303 C 
ATOM     13  O   UNL     1     -23.119  -4.669  -8.967  1.00  0.00    -0.253 OA
ATOM     14  C   UNL     1     -23.069  -3.583  -6.850  1.00  0.00     0.139 C 
ENDBRANCH  11  12
ENDBRANCH   1  11
TORSDOF 6
ENDMDL
MODEL 5
REMARK VINA RESULT:    -4.435      1.391      2.063
REMARK INTER + INTRA:          -6.901
REMARK INTER:                  -5.891
REMARK INTRA:                  -1.009
REMARK UNBOUND:                -0.910
REMARK SMILES C=C[C@@](C)(CCC=C(C)C)OC(C)=O
REMARK SMILES IDX 3 1 4 2 5 3 6 4 7 5 9 6 8 7 10 8 2 9 1 10 11 11 12 12 14 13
REMARK SMILES IDX 13 14
REMARK H PARENT
REMARK Flexibility Score: inf
ROOT
ATOM      1  C   UNL     1     -21.855  -5.476  -7.785  1.00  0.00     0.127 C 
ATOM      2  C   UNL     1     -21.715  -6.114  -9.187  1.00  0.00     0.061 C 
ENDROOT
BRANCH   1   3
ATOM      3  C   UNL     1     -20.546  -4.750  -7.380  1.00  0.00     0.057 C 
BRANCH   3   4
ATOM      4  C   UNL     1     -19.558  -4.572  -8.547  1.00  0.00     0.032 C 
BRANCH   4   5
ATOM      5  C   UNL     1     -19.192  -3.119  -8.720  1.00  0.00    -0.028 C 
ATOM      6  C   UNL     1     -19.270  -0.875  -9.761  1.00  0.00     0.039 C 
ATOM      7  C   UNL     1     -19.730  -2.306  -9.657  1.00  0.00    -0.080 C 
ATOM      8  C   UNL     1     -20.821  -2.770 -10.589  1.00  0.00     0.039 C 
ENDBRANCH   4   5
ENDBRANCH   3   4
ENDBRANCH   1   3
BRANCH   1   9
ATOM      9  C   UNL     1     -22.997  -4.470  -7.767  1.00  0.00     0.013 C 
ATOM     10  C   UNL     1     -22.838  -3.190  -7.407  1.00  0.00     0.008 C 
ENDBRANCH   1   9
BRANCH   1  11
ATOM     11  O   UNL     1     -22.106  -6.499  -6.809  1.00  0.00    -0.455 OA
BRANCH  11  12
ATOM     12  C   UNL     1     -22.755  -6.314  -5.578  1.00  0.00     0.303 C 
ATOM     13  O   UNL     1     -22.219  -5.653  -4.649  1.00  0.00    -0.253 OA
ATOM     14  C   UNL     1     -24.119  -6.883  -5.382  1.00  0.00     0.139 C 
ENDBRANCH  11  12
ENDBRANCH   1  11
TORSDOF 6
ENDMDL
MODEL 6
REMARK VINA RESULT:    -4.297      1.403      2.468
REMARK INTER + INTRA:          -6.715
REMARK INTER:                  -5.823
REMARK INTRA:                  -0.892
REMARK UNBOUND:                -0.910
REMARK SMILES C=C[C@@](C)(CCC=C(C)C)OC(C)=O
REMARK SMILES IDX 3 1 4 2 5 3 6 4 7 5 9 6 8 7 10 8 2 9 1 10 11 11 12 12 14 13
REMARK SMILES IDX 13 14
REMARK H PARENT
REMARK Flexibility Score: inf
ROOT
ATOM      1  C   UNL     1     -22.239  -4.834  -7.322  1.00  0.00     0.127 C 
ATOM      2  C   UNL     1     -21.030  -4.630  -6.380  1.00  0.00     0.061 C 
ENDROOT
BRANCH   1   3
ATOM      3  C   UNL     1     -22.639  -3.496  -7.998  1.00  0.00     0.057 C 
BRANCH   3   4
ATOM      4  C   UNL     1     -22.234  -3.414  -9.481  1.00  0.00     0.032 C 
BRANCH   4   5
ATOM      5  C   UNL     1     -21.393  -2.188  -9.737  1.00  0.00    -0.028 C 
ATOM      6  C   UNL     1     -19.302  -0.875  -9.914  1.00  0.00     0.039 C 
ATOM      7  C   UNL     1     -20.043  -2.163  -9.668  1.00  0.00    -0.080 C 
ATOM      8  C   UNL     1     -19.232  -3.406  -9.393  1.00  0.00     0.039 C 
ENDBRANCH   4   5
ENDBRANCH   3   4
ENDBRANCH   1   3
BRANCH   1   9
ATOM      9  C   UNL     1     -21.907  -5.848  -8.408  1.00  0.00     0.013 C 
ATOM     10  C   UNL     1     -20.866  -6.687  -8.332  1.00  0.00     0.008 C 
ENDBRANCH   1   9
BRANCH   1  11
ATOM     11  O   UNL     1     -23.370  -5.297  -6.568  1.00  0.00    -0.455 OA
BRANCH  11  12
ATOM     12  C   UNL     1     -23.329  -6.233  -5.523  1.00  0.00     0.303 C 
ATOM     13  O   UNL     1     -23.212  -7.466  -5.755  1.00  0.00    -0.253 OA
ATOM     14  C   UNL     1     -23.389  -5.753  -4.113  1.00  0.00     0.139 C 
ENDBRANCH  11  12
ENDBRANCH   1  11
TORSDOF 6
ENDMDL
MODEL 7
REMARK VINA RESULT:    -4.258      2.108      4.817
REMARK INTER + INTRA:          -6.662
REMARK INTER:                  -5.837
REMARK INTRA:                  -0.824
REMARK UNBOUND:                -0.910
REMARK SMILES C=C[C@@](C)(CCC=C(C)C)OC(C)=O
REMARK SMILES IDX 3 1 4 2 5 3 6 4 7 5 9 6 8 7 10 8 2 9 1 10 11 11 12 12 14 13
REMARK SMILES IDX 13 14
REMARK H PARENT
REMARK Flexibility Score: inf
ROOT
ATOM      1  C   UNL     1     -21.044  -4.626  -9.038  1.00  0.00     0.127 C 
ATOM      2  C   UNL     1     -22.519  -4.917  -9.396  1.00  0.00     0.061 C 
ENDROOT
BRANCH   1   3
ATOM      3  C   UNL     1     -20.953  -3.729  -7.775  1.00  0.00     0.057 C 
BRANCH   3   4
ATOM      4  C   UNL     1     -22.311  -3.502  -7.087  1.00  0.00     0.032 C 
BRANCH   4   5
ATOM      5  C   UNL     1     -22.240  -3.886  -5.630  1.00  0.00    -0.028 C 
ATOM      6  C   UNL     1     -22.621  -5.317  -3.646  1.00  0.00     0.039 C 
ATOM      7  C   UNL     1     -22.716  -5.047  -5.125  1.00  0.00    -0.080 C 
ATOM      8  C   UNL     1     -23.310  -6.119  -6.005  1.00  0.00     0.039 C 
ENDBRANCH   4   5
ENDBRANCH   3   4
ENDBRANCH   1   3
BRANCH   1   9
ATOM      9  C   UNL     1     -20.291  -5.923  -8.770  1.00  0.00     0.013 C 
ATOM     10  C   UNL     1     -20.790  -7.131  -9.061  1.00  0.00     0.008 C 
ENDBRANCH   1   9
BRANCH   1  11
ATOM     11  O   UNL     1     -20.410  -3.924 -10.118  1.00  0.00    -0.455 OA
BRANCH  11  12
ATOM     12  C   UNL     1     -20.495  -2.544 -10.359  1.00  0.00     0.303 C 
ATOM     13  O   UNL     1     -21.594  -1.996 -10.644  1.00  0.00    -0.253 OA
ATOM     14  C   UNL     1     -19.267  -1.707 -10.239  1.00  0.00     0.139 C 
ENDBRANCH  11  12
ENDBRANCH   1  11
TORSDOF 6
ENDMDL
MODEL 8
REMARK VINA RESULT:    -4.247      1.727      4.661
REMARK INTER + INTRA:          -6.646
REMARK INTER:                  -5.942
REMARK INTRA:                  -0.704
REMARK UNBOUND:                -0.910
REMARK SMILES C=C[C@@](C)(CCC=C(C)C)OC(C)=O
REMARK SMILES IDX 3 1 4 2 5 3 6 4 7 5 9 6 8 7 10 8 2 9 1 10 11 11 12 12 14 13
REMARK SMILES IDX 13 14
REMARK H PARENT
REMARK Flexibility Score: inf
ROOT
ATOM      1  C   UNL     1     -21.662  -5.023  -9.872  1.00  0.00     0.127 C 
ATOM      2  C   UNL     1     -21.887  -5.939 -11.097  1.00  0.00     0.061 C 
ENDROOT
BRANCH   1   3
ATOM      3  C   UNL     1     -20.613  -5.642  -8.911  1.00  0.00     0.057 C 
BRANCH   3   4
ATOM      4  C   UNL     1     -20.365  -7.141  -9.158  1.00  0.00     0.032 C 
BRANCH   4   5
ATOM      5  C   UNL     1     -21.044  -7.975  -8.100  1.00  0.00    -0.028 C 
ATOM      6  C   UNL     1     -21.165  -9.519  -6.169  1.00  0.00     0.039 C 
ATOM      7  C   UNL     1     -20.388  -8.696  -7.163  1.00  0.00    -0.080 C 
ATOM      8  C   UNL     1     -18.884  -8.673  -7.043  1.00  0.00     0.039 C 
ENDBRANCH   4   5
ENDBRANCH   3   4
ENDBRANCH   1   3
BRANCH   1   9
ATOM      9  C   UNL     1     -21.170  -3.651 -10.312  1.00  0.00     0.013 C 
ATOM     10  C   UNL     1     -20.037  -3.100  -9.858  1.00  0.00     0.008 C 
ENDBRANCH   1   9
BRANCH   1  11
ATOM     11  O   UNL     1     -22.890  -4.877  -9.142  1.00  0.00    -0.455 OA
BRANCH  11  12
ATOM     12  C   UNL     1     -23.010  -4.390  -7.831  1.00  0.00     0.303 C 
ATOM     13  O   UNL     1     -22.862  -3.166  -7.573  1.00  0.00    -0.253 OA
ATOM     14  C   UNL     1     -23.353  -5.336  -6.732  1.00  0.00     0.139 C 
ENDBRANCH  11  12
ENDBRANCH   1  11
TORSDOF 6
ENDMDL
MODEL 9
REMARK VINA RESULT:    -4.206      2.112      4.996
REMARK INTER + INTRA:          -6.592
REMARK INTER:                  -5.979
REMARK INTRA:                  -0.613
REMARK UNBOUND:                -0.910
REMARK SMILES C=C[C@@](C)(CCC=C(C)C)OC(C)=O
REMARK SMILES IDX 3 1 4 2 5 3 6 4 7 5 9 6 8 7 10 8 2 9 1 10 11 11 12 12 14 13
REMARK SMILES IDX 13 14
REMARK H PARENT
REMARK Flexibility Score: inf
ROOT
ATOM      1  C   UNL     1     -21.457  -5.458  -9.946  1.00  0.00     0.127 C 
ATOM      2  C   UNL     1     -22.611  -5.077  -8.991  1.00  0.00     0.061 C 
ENDROOT
BRANCH   1   3
ATOM      3  C   UNL     1     -20.945  -6.891  -9.644  1.00  0.00     0.057 C 
BRANCH   3   4
ATOM      4  C   UNL     1     -20.343  -7.042  -8.236  1.00  0.00     0.032 C 
BRANCH   4   5
ATOM      5  C   UNL     1     -20.653  -8.403  -7.666  1.00  0.00    -0.028 C 
ATOM      6  C   UNL     1     -21.741 -10.024  -6.143  1.00  0.00     0.039 C 
ATOM      7  C   UNL     1     -21.527  -8.624  -6.657  1.00  0.00    -0.080 C 
ATOM      8  C   UNL     1     -22.342  -7.511  -6.046  1.00  0.00     0.039 C 
ENDBRANCH   4   5
ENDBRANCH   3   4
ENDBRANCH   1   3
BRANCH   1   9
ATOM      9  C   UNL     1     -21.920  -5.402 -11.396  1.00  0.00     0.013 C 
ATOM     10  C   UNL     1     -21.941  -6.473 -12.199  1.00  0.00     0.008 C 
ENDBRANCH   1   9
BRANCH   1  11
ATOM     11  O   UNL     1     -20.356  -4.554  -9.764  1.00  0.00    -0.455 OA
BRANCH  11  12
ATOM     12  C   UNL     1     -20.453  -3.228  -9.314  1.00  0.00     0.303 C 
ATOM     13  O   UNL     1     -20.184  -2.921  -8.122  1.00  0.00    -0.253 OA
ATOM     14  C   UNL     1     -20.847  -2.161 -10.277  1.00  0.00     0.139 C 
ENDBRANCH  11  12
ENDBRANCH   1  11
TORSDOF 6
ENDMDL
