MODEL 1
REMARK VINA RESULT:    -4.473      0.000      0.000
REMARK INTER + INTRA:          -9.762
REMARK INTER:                  -8.134
REMARK INTRA:                  -1.628
REMARK UNBOUND:                -1.628
REMARK SMILES CCCCCCCCCCCCCCCC(=O)[O-]
REMARK SMILES IDX 9 1 10 2 11 3 12 4 13 5 14 6 15 7 16 8 17 9 18 10 8 11 7 12
REMARK SMILES IDX 6 13 5 14 4 15 3 16 2 17 1 18
REMARK H PARENT
REMARK Flexibility Score: inf
ROOT
ATOM      1  C   UNL     1      18.733  10.509   6.600  1.00  0.00     0.000 C 
ENDROOT
BRANCH   1   2
ATOM      2  C   UNL     1      19.994  10.976   7.350  1.00  0.00     0.000 C 
BRANCH   2   3
ATOM      3  C   UNL     1      20.731   9.868   8.128  1.00  0.00     0.000 C 
BRANCH   3   4
ATOM      4  C   UNL     1      20.544   8.441   7.575  1.00  0.00     0.000 C 
BRANCH   4   5
ATOM      5  C   UNL     1      21.787   7.538   7.673  1.00  0.00     0.000 C 
BRANCH   5   6
ATOM      6  C   UNL     1      21.908   6.561   6.495  1.00  0.00     0.006 C 
BRANCH   6   7
ATOM      7  C   UNL     1      23.376   6.328   6.125  1.00  0.00     0.053 C 
BRANCH   7   8
ATOM      8  C   UNL     1      23.486   5.312   5.033  1.00  0.00     0.041 C 
ATOM      9  O   UNL     1      23.063   5.576   3.877  1.00  0.00    -0.550 OA
ATOM     10  O   UNL     1      24.102   4.091   5.279  1.00  0.00    -0.550 OA
ENDBRANCH   7   8
ENDBRANCH   6   7
ENDBRANCH   5   6
ENDBRANCH   4   5
ENDBRANCH   3   4
ENDBRANCH   2   3
ENDBRANCH   1   2
BRANCH   1  11
ATOM     11  C   UNL     1      18.856  10.666   5.075  1.00  0.00     0.000 C 
BRANCH  11  12
ATOM     12  C   UNL     1      17.854   9.788   4.309  1.00  0.00    -0.000 C 
BRANCH  12  13
ATOM     13  C   UNL     1      18.502   9.042   3.129  1.00  0.00    -0.000 C 
BRANCH  13  14
ATOM     14  C   UNL     1      18.457   7.510   3.316  1.00  0.00    -0.000 C 
BRANCH  14  15
ATOM     15  C   UNL     1      18.615   7.063   4.778  1.00  0.00    -0.000 C 
BRANCH  15  16
ATOM     16  C   UNL     1      17.433   6.222   5.278  1.00  0.00    -0.000 C 
BRANCH  16  17
ATOM     17  C   UNL     1      16.595   7.002   6.296  1.00  0.00    -0.003 C 
ATOM     18  C   UNL     1      17.245   6.984   7.676  1.00  0.00     0.004 C 
ENDBRANCH  16  17
ENDBRANCH  15  16
ENDBRANCH  14  15
ENDBRANCH  13  14
ENDBRANCH  12  13
ENDBRANCH  11  12
ENDBRANCH   1  11
TORSDOF 14
ENDMDL
MODEL 2
REMARK VINA RESULT:    -4.451      0.873      2.356
REMARK INTER + INTRA:          -9.721
REMARK INTER:                  -7.858
REMARK INTRA:                  -1.863
REMARK UNBOUND:                -1.628
REMARK SMILES CCCCCCCCCCCCCCCC(=O)[O-]
REMARK SMILES IDX 9 1 10 2 11 3 12 4 13 5 14 6 15 7 16 8 17 9 18 10 8 11 7 12
REMARK SMILES IDX 6 13 5 14 4 15 3 16 2 17 1 18
REMARK H PARENT
REMARK Flexibility Score: inf
ROOT
ATOM      1  C   UNL     1      18.957  10.127   5.470  1.00  0.00     0.000 C 
ENDROOT
BRANCH   1   2
ATOM      2  C   UNL     1      19.402  10.687   6.834  1.00  0.00     0.000 C 
BRANCH   2   3
ATOM      3  C   UNL     1      20.307   9.748   7.655  1.00  0.00     0.000 C 
BRANCH   3   4
ATOM      4  C   UNL     1      20.219   8.255   7.277  1.00  0.00     0.000 C 
BRANCH   4   5
ATOM      5  C   UNL     1      21.525   7.461   7.460  1.00  0.00     0.000 C 
BRANCH   5   6
ATOM      6  C   UNL     1      21.792   6.480   6.311  1.00  0.00     0.006 C 
BRANCH   6   7
ATOM      7  C   UNL     1      23.294   6.344   6.044  1.00  0.00     0.053 C 
BRANCH   7   8
ATOM      8  C   UNL     1      23.551   5.282   5.023  1.00  0.00     0.041 C 
ATOM      9  O   UNL     1      24.013   4.165   5.375  1.00  0.00    -0.550 OA
ATOM     10  O   UNL     1      23.235   5.507   3.689  1.00  0.00    -0.550 OA
ENDBRANCH   7   8
ENDBRANCH   6   7
ENDBRANCH   5   6
ENDBRANCH   4   5
ENDBRANCH   3   4
ENDBRANCH   2   3
ENDBRANCH   1   2
BRANCH   1  11
ATOM     11  C   UNL     1      17.428  10.112   5.305  1.00  0.00     0.000 C 
BRANCH  11  12
ATOM     12  C   UNL     1      16.707   9.533   6.533  1.00  0.00    -0.000 C 
BRANCH  12  13
ATOM     13  C   UNL     1      16.744   7.995   6.570  1.00  0.00    -0.000 C 
BRANCH  13  14
ATOM     14  C   UNL     1      16.219   7.370   5.260  1.00  0.00    -0.000 C 
BRANCH  14  15
ATOM     15  C   UNL     1      17.084   6.207   4.743  1.00  0.00    -0.000 C 
BRANCH  15  16
ATOM     16  C   UNL     1      18.506   6.642   4.367  1.00  0.00    -0.000 C 
BRANCH  16  17
ATOM     17  C   UNL     1      18.675   6.713   2.846  1.00  0.00    -0.003 C 
ATOM     18  C   UNL     1      18.478   8.137   2.334  1.00  0.00     0.004 C 
ENDBRANCH  16  17
ENDBRANCH  15  16
ENDBRANCH  14  15
ENDBRANCH  13  14
ENDBRANCH  12  13
ENDBRANCH  11  12
ENDBRANCH   1  11
TORSDOF 14
ENDMDL
MODEL 3
REMARK VINA RESULT:    -4.308      2.750      5.492
REMARK INTER + INTRA:          -9.462
REMARK INTER:                  -7.806
REMARK INTRA:                  -1.656
REMARK UNBOUND:                -1.628
REMARK SMILES CCCCCCCCCCCCCCCC(=O)[O-]
REMARK SMILES IDX 9 1 10 2 11 3 12 4 13 5 14 6 15 7 16 8 17 9 18 10 8 11 7 12
REMARK SMILES IDX 6 13 5 14 4 15 3 16 2 17 1 18
REMARK H PARENT
REMARK Flexibility Score: inf
ROOT
ATOM      1  C   UNL     1      18.474   9.671   5.603  1.00  0.00     0.000 C 
ENDROOT
BRANCH   1   2
ATOM      2  C   UNL     1      17.015   9.476   6.055  1.00  0.00     0.000 C 
BRANCH   2   3
ATOM      3  C   UNL     1      16.583   8.007   6.232  1.00  0.00     0.000 C 
BRANCH   3   4
ATOM      4  C   UNL     1      17.688   6.962   5.979  1.00  0.00     0.000 C 
BRANCH   4   5
ATOM      5  C   UNL     1      17.378   5.945   4.867  1.00  0.00     0.000 C 
BRANCH   5   6
ATOM      6  C   UNL     1      16.916   6.610   3.563  1.00  0.00     0.006 C 
BRANCH   6   7
ATOM      7  C   UNL     1      18.102   7.219   2.808  1.00  0.00     0.053 C 
BRANCH   7   8
ATOM      8  C   UNL     1      17.669   8.423   2.035  1.00  0.00     0.041 C 
ATOM      9  O   UNL     1      18.239   8.720   0.953  1.00  0.00    -0.550 OA
ATOM     10  O   UNL     1      16.602   9.191   2.484  1.00  0.00    -0.550 OA
ENDBRANCH   7   8
ENDBRANCH   6   7
ENDBRANCH   5   6
ENDBRANCH   4   5
ENDBRANCH   3   4
ENDBRANCH   2   3
ENDBRANCH   1   2
BRANCH   1  11
ATOM     11  C   UNL     1      19.103  10.959   6.161  1.00  0.00     0.000 C 
BRANCH  11  12
ATOM     12  C   UNL     1      20.001  10.696   7.380  1.00  0.00    -0.000 C 
BRANCH  12  13
ATOM     13  C   UNL     1      20.258   9.197   7.613  1.00  0.00    -0.000 C 
BRANCH  13  14
ATOM     14  C   UNL     1      21.452   8.954   8.562  1.00  0.00    -0.000 C 
BRANCH  14  15
ATOM     15  C   UNL     1      22.177   7.621   8.310  1.00  0.00    -0.000 C 
BRANCH  15  16
ATOM     16  C   UNL     1      21.461   6.737   7.280  1.00  0.00    -0.000 C 
BRANCH  16  17
ATOM     17  C   UNL     1      22.434   6.252   6.200  1.00  0.00    -0.003 C 
ATOM     18  C   UNL     1      23.874   6.617   6.551  1.00  0.00     0.004 C 
ENDBRANCH  16  17
ENDBRANCH  15  16
ENDBRANCH  14  15
ENDBRANCH  13  14
ENDBRANCH  12  13
ENDBRANCH  11  12
ENDBRANCH   1  11
TORSDOF 14
ENDMDL
MODEL 4
REMARK VINA RESULT:    -4.301      1.869      5.298
REMARK INTER + INTRA:          -9.450
REMARK INTER:                  -8.020
REMARK INTRA:                  -1.431
REMARK UNBOUND:                -1.628
REMARK SMILES CCCCCCCCCCCCCCCC(=O)[O-]
REMARK SMILES IDX 9 1 10 2 11 3 12 4 13 5 14 6 15 7 16 8 17 9 18 10 8 11 7 12
REMARK SMILES IDX 6 13 5 14 4 15 3 16 2 17 1 18
REMARK H PARENT
REMARK Flexibility Score: inf
ROOT
ATOM      1  C   UNL     1      19.420   9.848   6.486  1.00  0.00     0.000 C 
ENDROOT
BRANCH   1   2
ATOM      2  C   UNL     1      18.828  10.604   5.282  1.00  0.00     0.000 C 
BRANCH   2   3
ATOM      3  C   UNL     1      17.333  10.334   5.020  1.00  0.00     0.000 C 
BRANCH   3   4
ATOM      4  C   UNL     1      16.621   9.486   6.093  1.00  0.00     0.000 C 
BRANCH   4   5
ATOM      5  C   UNL     1      16.078   8.134   5.597  1.00  0.00     0.000 C 
BRANCH   5   6
ATOM      6  C   UNL     1      16.894   6.940   6.112  1.00  0.00     0.006 C 
BRANCH   6   7
ATOM      7  C   UNL     1      17.337   6.040   4.955  1.00  0.00     0.053 C 
BRANCH   7   8
ATOM      8  C   UNL     1      18.292   6.767   4.061  1.00  0.00     0.041 C 
ATOM      9  O   UNL     1      19.476   6.976   4.436  1.00  0.00    -0.550 OA
ATOM     10  O   UNL     1      17.889   7.171   2.795  1.00  0.00    -0.550 OA
ENDBRANCH   7   8
ENDBRANCH   6   7
ENDBRANCH   5   6
ENDBRANCH   4   5
ENDBRANCH   3   4
ENDBRANCH   2   3
ENDBRANCH   1   2
BRANCH   1  11
ATOM     11  C   UNL     1      20.004  10.791   7.551  1.00  0.00     0.000 C 
BRANCH  11  12
ATOM     12  C   UNL     1      20.946  10.068   8.526  1.00  0.00    -0.000 C 
BRANCH  12  13
ATOM     13  C   UNL     1      21.118   8.576   8.186  1.00  0.00    -0.000 C 
BRANCH  13  14
ATOM     14  C   UNL     1      22.452   8.010   8.716  1.00  0.00    -0.000 C 
BRANCH  14  15
ATOM     15  C   UNL     1      23.103   6.983   7.775  1.00  0.00    -0.000 C 
BRANCH  15  16
ATOM     16  C   UNL     1      22.169   6.535   6.642  1.00  0.00    -0.000 C 
BRANCH  16  17
ATOM     17  C   UNL     1      22.959   5.879   5.505  1.00  0.00    -0.003 C 
ATOM     18  C   UNL     1      23.652   4.605   5.979  1.00  0.00     0.004 C 
ENDBRANCH  16  17
ENDBRANCH  15  16
ENDBRANCH  14  15
ENDBRANCH  13  14
ENDBRANCH  12  13
ENDBRANCH  11  12
ENDBRANCH   1  11
TORSDOF 14
ENDMDL
MODEL 5
REMARK VINA RESULT:    -4.233      2.070      3.793
REMARK INTER + INTRA:          -9.326
REMARK INTER:                  -7.280
REMARK INTRA:                  -2.046
REMARK UNBOUND:                -1.628
REMARK SMILES CCCCCCCCCCCCCCCC(=O)[O-]
REMARK SMILES IDX 9 1 10 2 11 3 12 4 13 5 14 6 15 7 16 8 17 9 18 10 8 11 7 12
REMARK SMILES IDX 6 13 5 14 4 15 3 16 2 17 1 18
REMARK H PARENT
REMARK Flexibility Score: inf
ROOT
ATOM      1  C   UNL     1      16.625   9.616   6.139  1.00  0.00     0.000 C 
ENDROOT
BRANCH   1   2
ATOM      2  C   UNL     1      16.045   8.441   5.332  1.00  0.00     0.000 C 
BRANCH   2   3
ATOM      3  C   UNL     1      16.500   7.045   5.805  1.00  0.00     0.000 C 
BRANCH   3   4
ATOM      4  C   UNL     1      16.912   6.956   7.288  1.00  0.00     0.000 C 
BRANCH   4   5
ATOM      5  C   UNL     1      18.387   6.592   7.531  1.00  0.00     0.000 C 
BRANCH   5   6
ATOM      6  C   UNL     1      19.306   7.027   6.381  1.00  0.00     0.006 C 
BRANCH   6   7
ATOM      7  C   UNL     1      20.331   8.060   6.858  1.00  0.00     0.053 C 
BRANCH   7   8
ATOM      8  C   UNL     1      21.583   7.383   7.316  1.00  0.00     0.041 C 
ATOM      9  O   UNL     1      22.137   6.516   6.590  1.00  0.00    -0.550 OA
ATOM     10  O   UNL     1      22.167   7.744   8.523  1.00  0.00    -0.550 OA
ENDBRANCH   7   8
ENDBRANCH   6   7
ENDBRANCH   5   6
ENDBRANCH   4   5
ENDBRANCH   3   4
ENDBRANCH   2   3
ENDBRANCH   1   2
BRANCH   1  11
ATOM     11  C   UNL     1      17.739  10.363   5.385  1.00  0.00     0.000 C 
BRANCH  11  12
ATOM     12  C   UNL     1      18.183   9.628   4.111  1.00  0.00    -0.000 C 
BRANCH  12  13
ATOM     13  C   UNL     1      18.104  10.517   2.857  1.00  0.00    -0.000 C 
BRANCH  13  14
ATOM     14  C   UNL     1      17.629   9.731   1.616  1.00  0.00    -0.000 C 
BRANCH  14  15
ATOM     15  C   UNL     1      17.032   8.354   1.952  1.00  0.00    -0.000 C 
BRANCH  15  16
ATOM     16  C   UNL     1      17.279   7.311   0.853  1.00  0.00    -0.000 C 
BRANCH  16  17
ATOM     17  C   UNL     1      17.899   6.036   1.435  1.00  0.00    -0.003 C 
ATOM     18  C   UNL     1      18.645   6.328   2.734  1.00  0.00     0.004 C 
ENDBRANCH  16  17
ENDBRANCH  15  16
ENDBRANCH  14  15
ENDBRANCH  13  14
ENDBRANCH  12  13
ENDBRANCH  11  12
ENDBRANCH   1  11
TORSDOF 14
ENDMDL
MODEL 6
REMARK VINA RESULT:    -4.169      1.458      2.584
REMARK INTER + INTRA:          -9.209
REMARK INTER:                  -7.583
REMARK INTRA:                  -1.626
REMARK UNBOUND:                -1.628
REMARK SMILES CCCCCCCCCCCCCCCC(=O)[O-]
REMARK SMILES IDX 9 1 10 2 11 3 12 4 13 5 14 6 15 7 16 8 17 9 18 10 8 11 7 12
REMARK SMILES IDX 6 13 5 14 4 15 3 16 2 17 1 18
REMARK H PARENT
REMARK Flexibility Score: inf
ROOT
ATOM      1  C   UNL     1      19.032   8.641   7.760  1.00  0.00     0.000 C 
ENDROOT
BRANCH   1   2
ATOM      2  C   UNL     1      19.403   7.230   7.270  1.00  0.00     0.000 C 
BRANCH   2   3
ATOM      3  C   UNL     1      20.771   7.127   6.568  1.00  0.00     0.000 C 
BRANCH   3   4
ATOM      4  C   UNL     1      21.947   6.716   7.478  1.00  0.00     0.000 C 
BRANCH   4   5
ATOM      5  C   UNL     1      22.998   5.810   6.812  1.00  0.00     0.000 C 
BRANCH   5   6
ATOM      6  C   UNL     1      22.970   5.891   5.280  1.00  0.00     0.006 C 
BRANCH   6   7
ATOM      7  C   UNL     1      23.746   4.728   4.655  1.00  0.00     0.053 C 
BRANCH   7   8
ATOM      8  C   UNL     1      23.888   4.925   3.179  1.00  0.00     0.041 C 
ATOM      9  O   UNL     1      22.929   4.655   2.409  1.00  0.00    -0.550 OA
ATOM     10  O   UNL     1      25.063   5.453   2.658  1.00  0.00    -0.550 OA
ENDBRANCH   7   8
ENDBRANCH   6   7
ENDBRANCH   5   6
ENDBRANCH   4   5
ENDBRANCH   3   4
ENDBRANCH   2   3
ENDBRANCH   1   2
BRANCH   1  11
ATOM     11  C   UNL     1      19.989   9.724   7.231  1.00  0.00     0.000 C 
BRANCH  11  12
ATOM     12  C   UNL     1      19.248  10.868   6.521  1.00  0.00    -0.000 C 
BRANCH  12  13
ATOM     13  C   UNL     1      18.820  10.498   5.090  1.00  0.00    -0.000 C 
BRANCH  13  14
ATOM     14  C   UNL     1      17.307  10.707   4.865  1.00  0.00    -0.000 C 
BRANCH  14  15
ATOM     15  C   UNL     1      16.492   9.403   4.906  1.00  0.00    -0.000 C 
BRANCH  15  16
ATOM     16  C   UNL     1      17.210   8.228   4.228  1.00  0.00    -0.000 C 
BRANCH  16  17
ATOM     17  C   UNL     1      16.713   6.888   4.778  1.00  0.00    -0.003 C 
ATOM     18  C   UNL     1      15.974   7.074   6.100  1.00  0.00     0.004 C 
ENDBRANCH  16  17
ENDBRANCH  15  16
ENDBRANCH  14  15
ENDBRANCH  13  14
ENDBRANCH  12  13
ENDBRANCH  11  12
ENDBRANCH   1  11
TORSDOF 14
ENDMDL
MODEL 7
REMARK VINA RESULT:    -4.157      3.473      5.465
REMARK INTER + INTRA:          -9.188
REMARK INTER:                  -7.626
REMARK INTRA:                  -1.562
REMARK UNBOUND:                -1.628
REMARK SMILES CCCCCCCCCCCCCCCC(=O)[O-]
REMARK SMILES IDX 9 1 10 2 11 3 12 4 13 5 14 6 15 7 16 8 17 9 18 10 8 11 7 12
REMARK SMILES IDX 6 13 5 14 4 15 3 16 2 17 1 18
REMARK H PARENT
REMARK Flexibility Score: inf
ROOT
ATOM      1  C   UNL     1      19.227  10.915   6.055  1.00  0.00     0.000 C 
ENDROOT
BRANCH   1   2
ATOM      2  C   UNL     1      17.759  10.471   6.188  1.00  0.00     0.000 C 
BRANCH   2   3
ATOM      3  C   UNL     1      16.801  11.082   5.145  1.00  0.00     0.000 C 
BRANCH   3   4
ATOM      4  C   UNL     1      16.692  10.303   3.818  1.00  0.00     0.000 C 
BRANCH   4   5
ATOM      5  C   UNL     1      17.759  10.659   2.767  1.00  0.00     0.000 C 
BRANCH   5   6
ATOM      6  C   UNL     1      17.462  10.054   1.388  1.00  0.00     0.006 C 
BRANCH   6   7
ATOM      7  C   UNL     1      18.004   8.625   1.288  1.00  0.00     0.053 C 
BRANCH   7   8
ATOM      8  C   UNL     1      16.982   7.717   0.682  1.00  0.00     0.041 C 
ATOM      9  O   UNL     1      15.950   7.403   1.332  1.00  0.00    -0.550 OA
ATOM     10  O   UNL     1      17.144   7.257  -0.618  1.00  0.00    -0.550 OA
ENDBRANCH   7   8
ENDBRANCH   6   7
ENDBRANCH   5   6
ENDBRANCH   4   5
ENDBRANCH   3   4
ENDBRANCH   2   3
ENDBRANCH   1   2
BRANCH   1  11
ATOM     11  C   UNL     1      20.002  10.807   7.379  1.00  0.00     0.000 C 
BRANCH  11  12
ATOM     12  C   UNL     1      19.800   9.449   8.071  1.00  0.00    -0.000 C 
BRANCH  12  13
ATOM     13  C   UNL     1      20.509   8.299   7.335  1.00  0.00    -0.000 C 
BRANCH  13  14
ATOM     14  C   UNL     1      19.591   7.070   7.159  1.00  0.00    -0.000 C 
BRANCH  14  15
ATOM     15  C   UNL     1      18.189   7.257   7.761  1.00  0.00    -0.000 C 
BRANCH  15  16
ATOM     16  C   UNL     1      17.116   6.421   7.050  1.00  0.00    -0.000 C 
BRANCH  16  17
ATOM     17  C   UNL     1      16.337   7.271   6.040  1.00  0.00    -0.003 C 
ATOM     18  C   UNL     1      16.361   6.638   4.652  1.00  0.00     0.004 C 
ENDBRANCH  16  17
ENDBRANCH  15  16
ENDBRANCH  14  15
ENDBRANCH  13  14
ENDBRANCH  12  13
ENDBRANCH  11  12
ENDBRANCH   1  11
TORSDOF 14
ENDMDL
MODEL 8
REMARK VINA RESULT:    -4.156      1.140      1.957
REMARK INTER + INTRA:          -9.186
REMARK INTER:                  -7.274
REMARK INTRA:                  -1.912
REMARK UNBOUND:                -1.628
REMARK SMILES CCCCCCCCCCCCCCCC(=O)[O-]
REMARK SMILES IDX 9 1 10 2 11 3 12 4 13 5 14 6 15 7 16 8 17 9 18 10 8 11 7 12
REMARK SMILES IDX 6 13 5 14 4 15 3 16 2 17 1 18
REMARK H PARENT
REMARK Flexibility Score: inf
ROOT
ATOM      1  C   UNL     1      19.490   9.906   7.904  1.00  0.00     0.000 C 
ENDROOT
BRANCH   1   2
ATOM      2  C   UNL     1      20.724   8.989   7.987  1.00  0.00     0.000 C 
BRANCH   2   3
ATOM      3  C   UNL     1      20.693   7.774   7.039  1.00  0.00     0.000 C 
BRANCH   3   4
ATOM      4  C   UNL     1      21.389   6.506   7.573  1.00  0.00     0.000 C 
BRANCH   4   5
ATOM      5  C   UNL     1      22.751   6.748   8.249  1.00  0.00     0.000 C 
BRANCH   5   6
ATOM      6  C   UNL     1      23.904   6.858   7.242  1.00  0.00     0.006 C 
BRANCH   6   7
ATOM      7  C   UNL     1      24.233   5.491   6.635  1.00  0.00     0.053 C 
BRANCH   7   8
ATOM      8  C   UNL     1      24.164   5.550   5.142  1.00  0.00     0.041 C 
ATOM      9  O   UNL     1      25.193   5.332   4.451  1.00  0.00    -0.550 OA
ATOM     10  O   UNL     1      22.951   5.797   4.512  1.00  0.00    -0.550 OA
ENDBRANCH   7   8
ENDBRANCH   6   7
ENDBRANCH   5   6
ENDBRANCH   4   5
ENDBRANCH   3   4
ENDBRANCH   2   3
ENDBRANCH   1   2
BRANCH   1  11
ATOM     11  C   UNL     1      19.668  11.053   6.895  1.00  0.00     0.000 C 
BRANCH  11  12
ATOM     12  C   UNL     1      18.805  10.870   5.636  1.00  0.00    -0.000 C 
BRANCH  12  13
ATOM     13  C   UNL     1      17.324  10.614   5.966  1.00  0.00    -0.000 C 
BRANCH  13  14
ATOM     14  C   UNL     1      16.751   9.418   5.175  1.00  0.00    -0.000 C 
BRANCH  14  15
ATOM     15  C   UNL     1      17.806   8.360   4.809  1.00  0.00    -0.000 C 
BRANCH  15  16
ATOM     16  C   UNL     1      17.477   6.970   5.370  1.00  0.00    -0.000 C 
BRANCH  16  17
ATOM     17  C   UNL     1      16.502   7.068   6.547  1.00  0.00    -0.003 C 
ATOM     18  C   UNL     1      17.235   6.962   7.881  1.00  0.00     0.004 C 
ENDBRANCH  16  17
ENDBRANCH  15  16
ENDBRANCH  14  15
ENDBRANCH  13  14
ENDBRANCH  12  13
ENDBRANCH  11  12
ENDBRANCH   1  11
TORSDOF 14
ENDMDL
MODEL 9
REMARK VINA RESULT:    -4.101      1.256      1.903
REMARK INTER + INTRA:          -9.086
REMARK INTER:                  -7.095
REMARK INTRA:                  -1.991
REMARK UNBOUND:                -1.628
REMARK SMILES CCCCCCCCCCCCCCCC(=O)[O-]
REMARK SMILES IDX 9 1 10 2 11 3 12 4 13 5 14 6 15 7 16 8 17 9 18 10 8 11 7 12
REMARK SMILES IDX 6 13 5 14 4 15 3 16 2 17 1 18
REMARK H PARENT
REMARK Flexibility Score: inf
ROOT
ATOM      1  C   UNL     1      19.505  10.041   6.731  1.00  0.00     0.000 C 
ENDROOT
BRANCH   1   2
ATOM      2  C   UNL     1      18.592   8.886   7.180  1.00  0.00     0.000 C 
BRANCH   2   3
ATOM      3  C   UNL     1      19.304   7.530   7.361  1.00  0.00     0.000 C 
BRANCH   3   4
ATOM      4  C   UNL     1      20.773   7.493   6.894  1.00  0.00     0.000 C 
BRANCH   4   5
ATOM      5  C   UNL     1      21.651   6.439   7.592  1.00  0.00     0.000 C 
BRANCH   5   6
ATOM      6  C   UNL     1      23.112   6.475   7.125  1.00  0.00     0.006 C 
BRANCH   6   7
ATOM      7  C   UNL     1      23.486   5.181   6.397  1.00  0.00     0.053 C 
BRANCH   7   8
ATOM      8  C   UNL     1      23.723   5.446   4.944  1.00  0.00     0.041 C 
ATOM      9  O   UNL     1      22.760   5.736   4.188  1.00  0.00    -0.550 OA
ATOM     10  O   UNL     1      25.016   5.421   4.434  1.00  0.00    -0.550 OA
ENDBRANCH   7   8
ENDBRANCH   6   7
ENDBRANCH   5   6
ENDBRANCH   4   5
ENDBRANCH   3   4
ENDBRANCH   2   3
ENDBRANCH   1   2
BRANCH   1  11
ATOM     11  C   UNL     1      18.818  10.985   5.729  1.00  0.00     0.000 C 
BRANCH  11  12
ATOM     12  C   UNL     1      17.472  10.438   5.231  1.00  0.00    -0.000 C 
BRANCH  12  13
ATOM     13  C   UNL     1      17.389  10.380   3.695  1.00  0.00    -0.000 C 
BRANCH  13  14
ATOM     14  C   UNL     1      18.601   9.651   3.075  1.00  0.00    -0.000 C 
BRANCH  14  15
ATOM     15  C   UNL     1      18.315   8.185   2.707  1.00  0.00    -0.000 C 
BRANCH  15  16
ATOM     16  C   UNL     1      18.963   7.188   3.678  1.00  0.00    -0.000 C 
BRANCH  16  17
ATOM     17  C   UNL     1      17.919   6.225   4.253  1.00  0.00    -0.003 C 
ATOM     18  C   UNL     1      16.524   6.843   4.229  1.00  0.00     0.004 C 
ENDBRANCH  16  17
ENDBRANCH  15  16
ENDBRANCH  14  15
ENDBRANCH  13  14
ENDBRANCH  12  13
ENDBRANCH  11  12
ENDBRANCH   1  11
TORSDOF 14
ENDMDL
