MODEL 1
REMARK VINA RESULT:    -3.508      0.000      0.000
REMARK INTER + INTRA:         -12.477
REMARK INTER:                  -8.839
REMARK INTRA:                  -3.638
REMARK UNBOUND:                -3.638
REMARK SMILES CCCCCCCCCCCCCCCCCCCCCCCCCCCC(=O)[O-]
REMARK SMILES IDX 15 1 16 2 17 3 18 4 19 5 20 6 21 7 22 8 23 9 24 10 25 11
REMARK SMILES IDX 26 12 27 13 28 14 29 15 30 16 14 17 13 18 12 19 11 20 10 21
REMARK SMILES IDX 9 22 8 23 7 24 6 25 5 26 4 27 3 28 2 29 1 30
REMARK H PARENT
REMARK Flexibility Score: inf
ROOT
ATOM      1  C   UNL     1      34.791   9.703  48.594  1.00  0.00     0.000 C 
ENDROOT
BRANCH   1   2
ATOM      2  C   UNL     1      33.805   9.985  49.743  1.00  0.00     0.000 C 
BRANCH   2   3
ATOM      3  C   UNL     1      32.639  10.924  49.382  1.00  0.00     0.000 C 
BRANCH   3   4
ATOM      4  C   UNL     1      31.502  10.208  48.639  1.00  0.00     0.000 C 
BRANCH   4   5
ATOM      5  C   UNL     1      31.348   8.764  49.140  1.00  0.00     0.000 C 
BRANCH   5   6
ATOM      6  C   UNL     1      29.887   8.380  49.428  1.00  0.00     0.000 C 
BRANCH   6   7
ATOM      7  C   UNL     1      29.569   6.874  49.311  1.00  0.00     0.000 C 
BRANCH   7   8
ATOM      8  C   UNL     1      29.905   6.238  47.950  1.00  0.00     0.000 C 
BRANCH   8   9
ATOM      9  C   UNL     1      31.012   5.169  47.988  1.00  0.00     0.000 C 
BRANCH   9  10
ATOM     10  C   UNL     1      32.433   5.727  47.752  1.00  0.00     0.000 C 
BRANCH  10  11
ATOM     11  C   UNL     1      32.665   6.352  46.361  1.00  0.00     0.000 C 
BRANCH  11  12
ATOM     12  C   UNL     1      33.361   7.727  46.358  1.00  0.00     0.006 C 
BRANCH  12  13
ATOM     13  C   UNL     1      34.002   8.079  45.008  1.00  0.00     0.053 C 
BRANCH  13  14
ATOM     14  C   UNL     1      34.876   9.288  45.133  1.00  0.00     0.041 C 
ATOM     15  O   UNL     1      34.390  10.440  44.983  1.00  0.00    -0.550 OA
ATOM     16  O   UNL     1      36.227   9.143  45.421  1.00  0.00    -0.550 OA
ENDBRANCH  13  14
ENDBRANCH  12  13
ENDBRANCH  11  12
ENDBRANCH  10  11
ENDBRANCH   9  10
ENDBRANCH   8   9
ENDBRANCH   7   8
ENDBRANCH   6   7
ENDBRANCH   5   6
ENDBRANCH   4   5
ENDBRANCH   3   4
ENDBRANCH   2   3
ENDBRANCH   1   2
BRANCH   1  17
ATOM     17  C   UNL     1      36.204  10.288  48.785  1.00  0.00     0.000 C 
BRANCH  17  18
ATOM     18  C   UNL     1      36.343  11.753  48.318  1.00  0.00     0.000 C 
BRANCH  18  19
ATOM     19  C   UNL     1      37.495  12.490  49.024  1.00  0.00     0.000 C 
BRANCH  19  20
ATOM     20  C   UNL     1      37.142  13.944  49.374  1.00  0.00     0.000 C 
BRANCH  20  21
ATOM     21  C   UNL     1      35.654  14.262  49.141  1.00  0.00     0.000 C 
BRANCH  21  22
ATOM     22  C   UNL     1      35.294  15.702  49.546  1.00  0.00    -0.000 C 
BRANCH  22  23
ATOM     23  C   UNL     1      33.993  16.190  48.884  1.00  0.00    -0.000 C 
BRANCH  23  24
ATOM     24  C   UNL     1      34.229  16.766  47.478  1.00  0.00    -0.000 C 
BRANCH  24  25
ATOM     25  C   UNL     1      35.585  17.485  47.361  1.00  0.00    -0.000 C 
BRANCH  25  26
ATOM     26  C   UNL     1      35.957  17.835  45.907  1.00  0.00    -0.000 C 
BRANCH  26  27
ATOM     27  C   UNL     1      36.892  16.833  45.206  1.00  0.00    -0.000 C 
BRANCH  27  28
ATOM     28  C   UNL     1      37.405  15.731  46.151  1.00  0.00    -0.000 C 
BRANCH  28  29
ATOM     29  C   UNL     1      37.154  14.319  45.599  1.00  0.00    -0.003 C 
ATOM     30  C   UNL     1      35.669  13.993  45.457  1.00  0.00     0.004 C 
ENDBRANCH  28  29
ENDBRANCH  27  28
ENDBRANCH  26  27
ENDBRANCH  25  26
ENDBRANCH  24  25
ENDBRANCH  23  24
ENDBRANCH  22  23
ENDBRANCH  21  22
ENDBRANCH  20  21
ENDBRANCH  19  20
ENDBRANCH  18  19
ENDBRANCH  17  18
ENDBRANCH   1  17
TORSDOF 26
ENDMDL
MODEL 2
REMARK VINA RESULT:    -3.414      2.680      8.702
REMARK INTER + INTRA:         -12.241
REMARK INTER:                  -8.551
REMARK INTRA:                  -3.690
REMARK UNBOUND:                -3.638
REMARK SMILES CCCCCCCCCCCCCCCCCCCCCCCCCCCC(=O)[O-]
REMARK SMILES IDX 15 1 16 2 17 3 18 4 19 5 20 6 21 7 22 8 23 9 24 10 25 11
REMARK SMILES IDX 26 12 27 13 28 14 29 15 30 16 14 17 13 18 12 19 11 20 10 21
REMARK SMILES IDX 9 22 8 23 7 24 6 25 5 26 4 27 3 28 2 29 1 30
REMARK H PARENT
REMARK Flexibility Score: inf
ROOT
ATOM      1  C   UNL     1      34.588  10.401  45.865  1.00  0.00     0.000 C 
ENDROOT
BRANCH   1   2
ATOM      2  C   UNL     1      34.497  11.073  44.482  1.00  0.00     0.000 C 
BRANCH   2   3
ATOM      3  C   UNL     1      34.740  12.594  44.483  1.00  0.00     0.000 C 
BRANCH   3   4
ATOM      4  C   UNL     1      35.344  13.104  45.799  1.00  0.00     0.000 C 
BRANCH   4   5
ATOM      5  C   UNL     1      36.532  14.038  45.528  1.00  0.00     0.000 C 
BRANCH   5   6
ATOM      6  C   UNL     1      36.483  15.330  46.361  1.00  0.00     0.000 C 
BRANCH   6   7
ATOM      7  C   UNL     1      35.627  16.466  45.761  1.00  0.00     0.000 C 
BRANCH   7   8
ATOM      8  C   UNL     1      36.273  17.863  45.799  1.00  0.00     0.000 C 
BRANCH   8   9
ATOM      9  C   UNL     1      36.822  18.287  47.174  1.00  0.00     0.000 C 
BRANCH   9  10
ATOM     10  C   UNL     1      35.730  18.538  48.237  1.00  0.00     0.000 C 
BRANCH  10  11
ATOM     11  C   UNL     1      35.609  17.443  49.317  1.00  0.00     0.000 C 
BRANCH  11  12
ATOM     12  C   UNL     1      34.172  16.995  49.652  1.00  0.00     0.006 C 
BRANCH  12  13
ATOM     13  C   UNL     1      33.224  17.050  48.447  1.00  0.00     0.053 C 
BRANCH  13  14
ATOM     14  C   UNL     1      31.843  17.442  48.873  1.00  0.00     0.041 C 
ATOM     15  O   UNL     1      31.008  16.560  49.205  1.00  0.00    -0.550 OA
ATOM     16  O   UNL     1      31.480  18.782  48.909  1.00  0.00    -0.550 OA
ENDBRANCH  13  14
ENDBRANCH  12  13
ENDBRANCH  11  12
ENDBRANCH  10  11
ENDBRANCH   9  10
ENDBRANCH   8   9
ENDBRANCH   7   8
ENDBRANCH   6   7
ENDBRANCH   5   6
ENDBRANCH   4   5
ENDBRANCH   3   4
ENDBRANCH   2   3
ENDBRANCH   1   2
BRANCH   1  17
ATOM     17  C   UNL     1      35.917   9.676  46.154  1.00  0.00     0.000 C 
BRANCH  17  18
ATOM     18  C   UNL     1      36.372   9.770  47.626  1.00  0.00     0.000 C 
BRANCH  18  19
ATOM     19  C   UNL     1      37.207  11.032  47.906  1.00  0.00     0.000 C 
BRANCH  19  20
ATOM     20  C   UNL     1      37.000  11.576  49.329  1.00  0.00     0.000 C 
BRANCH  20  21
ATOM     21  C   UNL     1      36.606  13.064  49.339  1.00  0.00     0.000 C 
BRANCH  21  22
ATOM     22  C   UNL     1      35.112  13.270  49.640  1.00  0.00    -0.000 C 
BRANCH  22  23
ATOM     23  C   UNL     1      34.410  11.964  50.052  1.00  0.00    -0.000 C 
BRANCH  23  24
ATOM     24  C   UNL     1      33.344  11.524  49.035  1.00  0.00    -0.000 C 
BRANCH  24  25
ATOM     25  C   UNL     1      32.373  10.483  49.618  1.00  0.00    -0.000 C 
BRANCH  25  26
ATOM     26  C   UNL     1      31.703   9.613  48.538  1.00  0.00    -0.000 C 
BRANCH  26  27
ATOM     27  C   UNL     1      31.285   8.202  48.992  1.00  0.00    -0.000 C 
BRANCH  27  28
ATOM     28  C   UNL     1      31.766   7.097  48.034  1.00  0.00    -0.000 C 
BRANCH  28  29
ATOM     29  C   UNL     1      30.607   6.252  47.482  1.00  0.00    -0.003 C 
ATOM     30  C   UNL     1      29.349   6.334  48.346  1.00  0.00     0.004 C 
ENDBRANCH  28  29
ENDBRANCH  27  28
ENDBRANCH  26  27
ENDBRANCH  25  26
ENDBRANCH  24  25
ENDBRANCH  23  24
ENDBRANCH  22  23
ENDBRANCH  21  22
ENDBRANCH  20  21
ENDBRANCH  19  20
ENDBRANCH  18  19
ENDBRANCH  17  18
ENDBRANCH   1  17
TORSDOF 26
ENDMDL
MODEL 3
REMARK VINA RESULT:    -3.392      2.092      5.173
REMARK INTER + INTRA:         -12.186
REMARK INTER:                  -8.558
REMARK INTRA:                  -3.628
REMARK UNBOUND:                -3.638
REMARK SMILES CCCCCCCCCCCCCCCCCCCCCCCCCCCC(=O)[O-]
REMARK SMILES IDX 15 1 16 2 17 3 18 4 19 5 20 6 21 7 22 8 23 9 24 10 25 11
REMARK SMILES IDX 26 12 27 13 28 14 29 15 30 16 14 17 13 18 12 19 11 20 10 21
REMARK SMILES IDX 9 22 8 23 7 24 6 25 5 26 4 27 3 28 2 29 1 30
REMARK H PARENT
REMARK Flexibility Score: inf
ROOT
ATOM      1  C   UNL     1      34.576   9.473  44.914  1.00  0.00     0.000 C 
ENDROOT
BRANCH   1   2
ATOM      2  C   UNL     1      35.390   9.286  46.208  1.00  0.00     0.000 C 
BRANCH   2   3
ATOM      3  C   UNL     1      36.919   9.307  46.021  1.00  0.00     0.000 C 
BRANCH   3   4
ATOM      4  C   UNL     1      37.674   9.658  47.311  1.00  0.00     0.000 C 
BRANCH   4   5
ATOM      5  C   UNL     1      37.727  11.179  47.515  1.00  0.00     0.000 C 
BRANCH   5   6
ATOM      6  C   UNL     1      36.738  11.677  48.584  1.00  0.00     0.000 C 
BRANCH   6   7
ATOM      7  C   UNL     1      36.403  10.657  49.693  1.00  0.00     0.000 C 
BRANCH   7   8
ATOM      8  C   UNL     1      34.906  10.342  49.863  1.00  0.00     0.000 C 
BRANCH   8   9
ATOM      9  C   UNL     1      33.963  11.172  48.973  1.00  0.00     0.000 C 
BRANCH   9  10
ATOM     10  C   UNL     1      32.470  10.808  49.129  1.00  0.00     0.000 C 
BRANCH  10  11
ATOM     11  C   UNL     1      31.959   9.724  48.157  1.00  0.00     0.000 C 
BRANCH  11  12
ATOM     12  C   UNL     1      31.668   8.348  48.789  1.00  0.00     0.006 C 
BRANCH  12  13
ATOM     13  C   UNL     1      32.845   7.369  48.679  1.00  0.00     0.053 C 
BRANCH  13  14
ATOM     14  C   UNL     1      32.614   6.381  47.577  1.00  0.00     0.041 C 
ATOM     15  O   UNL     1      32.929   6.668  46.392  1.00  0.00    -0.550 OA
ATOM     16  O   UNL     1      32.053   5.142  47.860  1.00  0.00    -0.550 OA
ENDBRANCH  13  14
ENDBRANCH  12  13
ENDBRANCH  11  12
ENDBRANCH  10  11
ENDBRANCH   9  10
ENDBRANCH   8   9
ENDBRANCH   7   8
ENDBRANCH   6   7
ENDBRANCH   5   6
ENDBRANCH   4   5
ENDBRANCH   3   4
ENDBRANCH   2   3
ENDBRANCH   1   2
BRANCH   1  17
ATOM     17  C   UNL     1      34.406  10.934  44.453  1.00  0.00     0.000 C 
BRANCH  17  18
ATOM     18  C   UNL     1      34.887  11.975  45.487  1.00  0.00     0.000 C 
BRANCH  18  19
ATOM     19  C   UNL     1      35.157  13.352  44.854  1.00  0.00     0.000 C 
BRANCH  19  20
ATOM     20  C   UNL     1      36.218  14.158  45.620  1.00  0.00     0.000 C 
BRANCH  20  21
ATOM     21  C   UNL     1      35.623  15.383  46.338  1.00  0.00     0.000 C 
BRANCH  21  22
ATOM     22  C   UNL     1      35.864  16.689  45.562  1.00  0.00    -0.000 C 
BRANCH  22  23
ATOM     23  C   UNL     1      36.887  17.605  46.257  1.00  0.00    -0.000 C 
BRANCH  23  24
ATOM     24  C   UNL     1      36.243  18.494  47.334  1.00  0.00    -0.000 C 
BRANCH  24  25
ATOM     25  C   UNL     1      36.693  18.110  48.755  1.00  0.00    -0.000 C 
BRANCH  25  26
ATOM     26  C   UNL     1      35.516  17.759  49.685  1.00  0.00    -0.000 C 
BRANCH  26  27
ATOM     27  C   UNL     1      34.129  18.208  49.191  1.00  0.00    -0.000 C 
BRANCH  27  28
ATOM     28  C   UNL     1      33.188  17.027  48.893  1.00  0.00    -0.000 C 
BRANCH  28  29
ATOM     29  C   UNL     1      31.738  17.477  48.651  1.00  0.00    -0.003 C 
ATOM     30  C   UNL     1      31.441  18.860  49.227  1.00  0.00     0.004 C 
ENDBRANCH  28  29
ENDBRANCH  27  28
ENDBRANCH  26  27
ENDBRANCH  25  26
ENDBRANCH  24  25
ENDBRANCH  23  24
ENDBRANCH  22  23
ENDBRANCH  21  22
ENDBRANCH  20  21
ENDBRANCH  19  20
ENDBRANCH  18  19
ENDBRANCH  17  18
ENDBRANCH   1  17
TORSDOF 26
ENDMDL
MODEL 4
REMARK VINA RESULT:    -3.357      3.032      8.697
REMARK INTER + INTRA:         -12.097
REMARK INTER:                  -8.568
REMARK INTRA:                  -3.529
REMARK UNBOUND:                -3.638
REMARK SMILES CCCCCCCCCCCCCCCCCCCCCCCCCCCC(=O)[O-]
REMARK SMILES IDX 15 1 16 2 17 3 18 4 19 5 20 6 21 7 22 8 23 9 24 10 25 11
REMARK SMILES IDX 26 12 27 13 28 14 29 15 30 16 14 17 13 18 12 19 11 20 10 21
REMARK SMILES IDX 9 22 8 23 7 24 6 25 5 26 4 27 3 28 2 29 1 30
REMARK H PARENT
REMARK Flexibility Score: inf
ROOT
ATOM      1  C   UNL     1      35.612  13.991  45.115  1.00  0.00     0.000 C 
ENDROOT
BRANCH   1   2
ATOM      2  C   UNL     1      36.130  13.355  46.419  1.00  0.00     0.000 C 
BRANCH   2   3
ATOM      3  C   UNL     1      37.654  13.445  46.623  1.00  0.00     0.000 C 
BRANCH   3   4
ATOM      4  C   UNL     1      38.095  13.024  48.033  1.00  0.00     0.000 C 
BRANCH   4   5
ATOM      5  C   UNL     1      37.125  11.988  48.620  1.00  0.00     0.000 C 
BRANCH   5   6
ATOM      6  C   UNL     1      36.562  12.401  49.990  1.00  0.00     0.000 C 
BRANCH   6   7
ATOM      7  C   UNL     1      35.042  12.669  50.021  1.00  0.00     0.000 C 
BRANCH   7   8
ATOM      8  C   UNL     1      34.620  14.090  49.603  1.00  0.00     0.000 C 
BRANCH   8   9
ATOM      9  C   UNL     1      35.691  15.175  49.816  1.00  0.00     0.000 C 
BRANCH   9  10
ATOM     10  C   UNL     1      35.180  16.615  49.590  1.00  0.00     0.000 C 
BRANCH  10  11
ATOM     11  C   UNL     1      34.264  16.795  48.362  1.00  0.00     0.000 C 
BRANCH  11  12
ATOM     12  C   UNL     1      32.936  17.534  48.626  1.00  0.00     0.006 C 
BRANCH  12  13
ATOM     13  C   UNL     1      31.828  16.617  49.162  1.00  0.00     0.053 C 
BRANCH  13  14
ATOM     14  C   UNL     1      30.532  17.357  49.271  1.00  0.00     0.041 C 
ATOM     15  O   UNL     1      30.335  18.396  48.588  1.00  0.00    -0.550 OA
ATOM     16  O   UNL     1      29.537  16.896  50.125  1.00  0.00    -0.550 OA
ENDBRANCH  13  14
ENDBRANCH  12  13
ENDBRANCH  11  12
ENDBRANCH  10  11
ENDBRANCH   9  10
ENDBRANCH   8   9
ENDBRANCH   7   8
ENDBRANCH   6   7
ENDBRANCH   5   6
ENDBRANCH   4   5
ENDBRANCH   3   4
ENDBRANCH   2   3
ENDBRANCH   1   2
BRANCH   1  17
ATOM     17  C   UNL     1      34.748  13.067  44.235  1.00  0.00     0.000 C 
BRANCH  17  18
ATOM     18  C   UNL     1      34.481  11.680  44.859  1.00  0.00     0.000 C 
BRANCH  18  19
ATOM     19  C   UNL     1      34.118  10.619  43.804  1.00  0.00     0.000 C 
BRANCH  19  20
ATOM     20  C   UNL     1      34.504   9.196  44.237  1.00  0.00     0.000 C 
BRANCH  20  21
ATOM     21  C   UNL     1      35.178   9.163  45.621  1.00  0.00     0.000 C 
BRANCH  21  22
ATOM     22  C   UNL     1      34.178   8.866  46.751  1.00  0.00    -0.000 C 
BRANCH  22  23
ATOM     23  C   UNL     1      34.631   9.445  48.103  1.00  0.00    -0.000 C 
BRANCH  23  24
ATOM     24  C   UNL     1      33.510   9.426  49.156  1.00  0.00    -0.000 C 
BRANCH  24  25
ATOM     25  C   UNL     1      32.231  10.123  48.660  1.00  0.00    -0.000 C 
BRANCH  25  26
ATOM     26  C   UNL     1      30.986   9.219  48.734  1.00  0.00    -0.000 C 
BRANCH  26  27
ATOM     27  C   UNL     1      31.219   7.824  49.343  1.00  0.00    -0.000 C 
BRANCH  27  28
ATOM     28  C   UNL     1      30.321   6.740  48.720  1.00  0.00    -0.000 C 
BRANCH  28  29
ATOM     29  C   UNL     1      30.923   6.140  47.440  1.00  0.00    -0.003 C 
ATOM     30  C   UNL     1      32.399   5.778  47.592  1.00  0.00     0.004 C 
ENDBRANCH  28  29
ENDBRANCH  27  28
ENDBRANCH  26  27
ENDBRANCH  25  26
ENDBRANCH  24  25
ENDBRANCH  23  24
ENDBRANCH  22  23
ENDBRANCH  21  22
ENDBRANCH  20  21
ENDBRANCH  19  20
ENDBRANCH  18  19
ENDBRANCH  17  18
ENDBRANCH   1  17
TORSDOF 26
ENDMDL
MODEL 5
REMARK VINA RESULT:    -3.347      3.810      9.517
REMARK INTER + INTRA:         -12.073
REMARK INTER:                  -9.867
REMARK INTRA:                  -2.205
REMARK UNBOUND:                -3.638
REMARK SMILES CCCCCCCCCCCCCCCCCCCCCCCCCCCC(=O)[O-]
REMARK SMILES IDX 15 1 16 2 17 3 18 4 19 5 20 6 21 7 22 8 23 9 24 10 25 11
REMARK SMILES IDX 26 12 27 13 28 14 29 15 30 16 14 17 13 18 12 19 11 20 10 21
REMARK SMILES IDX 9 22 8 23 7 24 6 25 5 26 4 27 3 28 2 29 1 30
REMARK H PARENT
REMARK Flexibility Score: inf
ROOT
ATOM      1  C   UNL     1      35.489  13.186  45.623  1.00  0.00     0.000 C 
ENDROOT
BRANCH   1   2
ATOM      2  C   UNL     1      36.023  14.106  46.737  1.00  0.00     0.000 C 
BRANCH   2   3
ATOM      3  C   UNL     1      36.982  15.213  46.260  1.00  0.00     0.000 C 
BRANCH   3   4
ATOM      4  C   UNL     1      36.326  16.189  45.273  1.00  0.00     0.000 C 
BRANCH   4   5
ATOM      5  C   UNL     1      35.842  17.454  45.997  1.00  0.00     0.000 C 
BRANCH   5   6
ATOM      6  C   UNL     1      34.831  17.155  47.118  1.00  0.00     0.000 C 
BRANCH   6   7
ATOM      7  C   UNL     1      35.004  17.999  48.399  1.00  0.00     0.000 C 
BRANCH   7   8
ATOM      8  C   UNL     1      34.066  17.625  49.561  1.00  0.00     0.000 C 
BRANCH   8   9
ATOM      9  C   UNL     1      33.220  16.359  49.332  1.00  0.00     0.000 C 
BRANCH   9  10
ATOM     10  C   UNL     1      31.697  16.617  49.312  1.00  0.00     0.000 C 
BRANCH  10  11
ATOM     11  C   UNL     1      31.289  18.102  49.240  1.00  0.00     0.000 C 
BRANCH  11  12
ATOM     12  C   UNL     1      29.801  18.368  48.937  1.00  0.00     0.006 C 
BRANCH  12  13
ATOM     13  C   UNL     1      29.578  19.547  47.979  1.00  0.00     0.053 C 
BRANCH  13  14
ATOM     14  C   UNL     1      28.123  19.714  47.670  1.00  0.00     0.041 C 
ATOM     15  O   UNL     1      27.282  19.803  48.604  1.00  0.00    -0.550 OA
ATOM     16  O   UNL     1      27.695  19.777  46.350  1.00  0.00    -0.550 OA
ENDBRANCH  13  14
ENDBRANCH  12  13
ENDBRANCH  11  12
ENDBRANCH  10  11
ENDBRANCH   9  10
ENDBRANCH   8   9
ENDBRANCH   7   8
ENDBRANCH   6   7
ENDBRANCH   5   6
ENDBRANCH   4   5
ENDBRANCH   3   4
ENDBRANCH   2   3
ENDBRANCH   1   2
BRANCH   1  17
ATOM     17  C   UNL     1      35.444  11.687  45.978  1.00  0.00     0.000 C 
BRANCH  17  18
ATOM     18  C   UNL     1      36.550  11.243  46.960  1.00  0.00     0.000 C 
BRANCH  18  19
ATOM     19  C   UNL     1      36.005  10.375  48.107  1.00  0.00     0.000 C 
BRANCH  19  20
ATOM     20  C   UNL     1      36.394  10.911  49.494  1.00  0.00     0.000 C 
BRANCH  20  21
ATOM     21  C   UNL     1      35.321  11.841  50.089  1.00  0.00     0.000 C 
BRANCH  21  22
ATOM     22  C   UNL     1      33.984  11.747  49.334  1.00  0.00    -0.000 C 
BRANCH  22  23
ATOM     23  C   UNL     1      33.100  10.595  49.845  1.00  0.00    -0.000 C 
BRANCH  23  24
ATOM     24  C   UNL     1      31.770  10.492  49.081  1.00  0.00    -0.000 C 
BRANCH  24  25
ATOM     25  C   UNL     1      31.699   9.234  48.198  1.00  0.00    -0.000 C 
BRANCH  25  26
ATOM     26  C   UNL     1      32.815   8.218  48.506  1.00  0.00    -0.000 C 
BRANCH  26  27
ATOM     27  C   UNL     1      32.473   6.749  48.198  1.00  0.00    -0.000 C 
BRANCH  27  28
ATOM     28  C   UNL     1      31.088   6.580  47.549  1.00  0.00    -0.000 C 
BRANCH  28  29
ATOM     29  C   UNL     1      30.232   5.517  48.256  1.00  0.00    -0.003 C 
ATOM     30  C   UNL     1      28.737   5.825  48.199  1.00  0.00     0.004 C 
ENDBRANCH  28  29
ENDBRANCH  27  28
ENDBRANCH  26  27
ENDBRANCH  25  26
ENDBRANCH  24  25
ENDBRANCH  23  24
ENDBRANCH  22  23
ENDBRANCH  21  22
ENDBRANCH  20  21
ENDBRANCH  19  20
ENDBRANCH  18  19
ENDBRANCH  17  18
ENDBRANCH   1  17
TORSDOF 26
ENDMDL
MODEL 6
REMARK VINA RESULT:    -3.297      2.597      4.528
REMARK INTER + INTRA:         -11.947
REMARK INTER:                  -7.608
REMARK INTRA:                  -4.339
REMARK UNBOUND:                -3.638
REMARK SMILES CCCCCCCCCCCCCCCCCCCCCCCCCCCC(=O)[O-]
REMARK SMILES IDX 15 1 16 2 17 3 18 4 19 5 20 6 21 7 22 8 23 9 24 10 25 11
REMARK SMILES IDX 26 12 27 13 28 14 29 15 30 16 14 17 13 18 12 19 11 20 10 21
REMARK SMILES IDX 9 22 8 23 7 24 6 25 5 26 4 27 3 28 2 29 1 30
REMARK H PARENT
REMARK Flexibility Score: inf
ROOT
ATOM      1  C   UNL     1      32.920  10.629  50.063  1.00  0.00     0.000 C 
ENDROOT
BRANCH   1   2
ATOM      2  C   UNL     1      32.267   9.873  48.891  1.00  0.00     0.000 C 
BRANCH   2   3
ATOM      3  C   UNL     1      33.060   9.914  47.571  1.00  0.00     0.000 C 
BRANCH   3   4
ATOM      4  C   UNL     1      34.449   9.271  47.686  1.00  0.00     0.000 C 
BRANCH   4   5
ATOM      5  C   UNL     1      35.338   9.678  46.502  1.00  0.00     0.000 C 
BRANCH   5   6
ATOM      6  C   UNL     1      34.533  10.173  45.288  1.00  0.00     0.000 C 
BRANCH   6   7
ATOM      7  C   UNL     1      34.669   9.311  44.015  1.00  0.00     0.000 C 
BRANCH   7   8
ATOM      8  C   UNL     1      33.528   8.306  43.780  1.00  0.00     0.000 C 
BRANCH   8   9
ATOM      9  C   UNL     1      33.612   7.019  44.621  1.00  0.00     0.000 C 
BRANCH   9  10
ATOM     10  C   UNL     1      32.396   6.793  45.547  1.00  0.00     0.000 C 
BRANCH  10  11
ATOM     11  C   UNL     1      32.738   6.252  46.950  1.00  0.00     0.000 C 
BRANCH  11  12
ATOM     12  C   UNL     1      31.549   5.686  47.752  1.00  0.00     0.006 C 
BRANCH  12  13
ATOM     13  C   UNL     1      30.423   6.707  47.968  1.00  0.00     0.053 C 
BRANCH  13  14
ATOM     14  C   UNL     1      29.179   6.031  48.455  1.00  0.00     0.041 C 
ATOM     15  O   UNL     1      29.076   5.684  49.661  1.00  0.00    -0.550 OA
ATOM     16  O   UNL     1      28.130   5.788  47.577  1.00  0.00    -0.550 OA
ENDBRANCH  13  14
ENDBRANCH  12  13
ENDBRANCH  11  12
ENDBRANCH  10  11
ENDBRANCH   9  10
ENDBRANCH   8   9
ENDBRANCH   7   8
ENDBRANCH   6   7
ENDBRANCH   5   6
ENDBRANCH   4   5
ENDBRANCH   3   4
ENDBRANCH   2   3
ENDBRANCH   1   2
BRANCH   1  17
ATOM     17  C   UNL     1      32.917  12.165  49.934  1.00  0.00     0.000 C 
BRANCH  17  18
ATOM     18  C   UNL     1      34.318  12.805  50.045  1.00  0.00     0.000 C 
BRANCH  18  19
ATOM     19  C   UNL     1      35.100  12.743  48.721  1.00  0.00     0.000 C 
BRANCH  19  20
ATOM     20  C   UNL     1      36.548  12.263  48.909  1.00  0.00     0.000 C 
BRANCH  20  21
ATOM     21  C   UNL     1      37.519  12.908  47.904  1.00  0.00     0.000 C 
BRANCH  21  22
ATOM     22  C   UNL     1      36.940  12.953  46.480  1.00  0.00    -0.000 C 
BRANCH  22  23
ATOM     23  C   UNL     1      37.404  14.194  45.696  1.00  0.00    -0.000 C 
BRANCH  23  24
ATOM     24  C   UNL     1      36.229  15.076  45.242  1.00  0.00    -0.000 C 
BRANCH  24  25
ATOM     25  C   UNL     1      35.519  15.758  46.425  1.00  0.00    -0.000 C 
BRANCH  25  26
ATOM     26  C   UNL     1      35.481  17.294  46.300  1.00  0.00    -0.000 C 
BRANCH  26  27
ATOM     27  C   UNL     1      36.297  18.062  47.355  1.00  0.00    -0.000 C 
BRANCH  27  28
ATOM     28  C   UNL     1      37.473  17.241  47.917  1.00  0.00    -0.000 C 
BRANCH  28  29
ATOM     29  C   UNL     1      37.429  17.122  49.448  1.00  0.00    -0.003 C 
ATOM     30  C   UNL     1      36.579  15.947  49.928  1.00  0.00     0.004 C 
ENDBRANCH  28  29
ENDBRANCH  27  28
ENDBRANCH  26  27
ENDBRANCH  25  26
ENDBRANCH  24  25
ENDBRANCH  23  24
ENDBRANCH  22  23
ENDBRANCH  21  22
ENDBRANCH  20  21
ENDBRANCH  19  20
ENDBRANCH  18  19
ENDBRANCH  17  18
ENDBRANCH   1  17
TORSDOF 26
ENDMDL
MODEL 7
REMARK VINA RESULT:    -3.265      2.919      5.834
REMARK INTER + INTRA:         -11.867
REMARK INTER:                  -8.829
REMARK INTRA:                  -3.038
REMARK UNBOUND:                -3.638
REMARK SMILES CCCCCCCCCCCCCCCCCCCCCCCCCCCC(=O)[O-]
REMARK SMILES IDX 15 1 16 2 17 3 18 4 19 5 20 6 21 7 22 8 23 9 24 10 25 11
REMARK SMILES IDX 26 12 27 13 28 14 29 15 30 16 14 17 13 18 12 19 11 20 10 21
REMARK SMILES IDX 9 22 8 23 7 24 6 25 5 26 4 27 3 28 2 29 1 30
REMARK H PARENT
REMARK Flexibility Score: inf
ROOT
ATOM      1  C   UNL     1      35.202  11.971  45.140  1.00  0.00     0.000 C 
ENDROOT
BRANCH   1   2
ATOM      2  C   UNL     1      34.678  10.781  45.966  1.00  0.00     0.000 C 
BRANCH   2   3
ATOM      3  C   UNL     1      35.704   9.656  46.205  1.00  0.00     0.000 C 
BRANCH   3   4
ATOM      4  C   UNL     1      36.988  10.153  46.884  1.00  0.00     0.000 C 
BRANCH   4   5
ATOM      5  C   UNL     1      37.041   9.698  48.350  1.00  0.00     0.000 C 
BRANCH   5   6
ATOM      6  C   UNL     1      37.024  10.872  49.344  1.00  0.00     0.000 C 
BRANCH   6   7
ATOM      7  C   UNL     1      35.689  11.079  50.091  1.00  0.00     0.000 C 
BRANCH   7   8
ATOM      8  C   UNL     1      34.752  12.134  49.477  1.00  0.00     0.000 C 
BRANCH   8   9
ATOM      9  C   UNL     1      33.280  11.700  49.350  1.00  0.00     0.000 C 
BRANCH   9  10
ATOM     10  C   UNL     1      33.087  10.179  49.164  1.00  0.00     0.000 C 
BRANCH  10  11
ATOM     11  C   UNL     1      31.870   9.777  48.306  1.00  0.00     0.000 C 
BRANCH  11  12
ATOM     12  C   UNL     1      30.859   8.833  48.987  1.00  0.00     0.006 C 
BRANCH  12  13
ATOM     13  C   UNL     1      31.318   7.368  49.012  1.00  0.00     0.053 C 
BRANCH  13  14
ATOM     14  C   UNL     1      30.704   6.599  47.884  1.00  0.00     0.041 C 
ATOM     15  O   UNL     1      31.417   6.200  46.926  1.00  0.00    -0.550 OA
ATOM     16  O   UNL     1      29.343   6.320  47.892  1.00  0.00    -0.550 OA
ENDBRANCH  13  14
ENDBRANCH  12  13
ENDBRANCH  11  12
ENDBRANCH  10  11
ENDBRANCH   9  10
ENDBRANCH   8   9
ENDBRANCH   7   8
ENDBRANCH   6   7
ENDBRANCH   5   6
ENDBRANCH   4   5
ENDBRANCH   3   4
ENDBRANCH   2   3
ENDBRANCH   1   2
BRANCH   1  17
ATOM     17  C   UNL     1      35.369  13.287  45.923  1.00  0.00     0.000 C 
BRANCH  17  18
ATOM     18  C   UNL     1      36.760  13.937  45.767  1.00  0.00     0.000 C 
BRANCH  18  19
ATOM     19  C   UNL     1      36.706  15.270  44.999  1.00  0.00     0.000 C 
BRANCH  19  20
ATOM     20  C   UNL     1      37.031  16.480  45.889  1.00  0.00     0.000 C 
BRANCH  20  21
ATOM     21  C   UNL     1      35.828  17.425  46.062  1.00  0.00     0.000 C 
BRANCH  21  22
ATOM     22  C   UNL     1      35.367  17.524  47.526  1.00  0.00    -0.000 C 
BRANCH  22  23
ATOM     23  C   UNL     1      34.652  16.247  48.004  1.00  0.00    -0.000 C 
BRANCH  23  24
ATOM     24  C   UNL     1      33.399  16.555  48.841  1.00  0.00    -0.000 C 
BRANCH  24  25
ATOM     25  C   UNL     1      33.191  18.066  49.050  1.00  0.00    -0.000 C 
BRANCH  25  26
ATOM     26  C   UNL     1      31.791  18.412  49.592  1.00  0.00    -0.000 C 
BRANCH  26  27
ATOM     27  C   UNL     1      31.369  19.884  49.434  1.00  0.00    -0.000 C 
BRANCH  27  28
ATOM     28  C   UNL     1      29.876  20.114  49.733  1.00  0.00    -0.000 C 
BRANCH  28  29
ATOM     29  C   UNL     1      28.958  19.286  48.820  1.00  0.00    -0.003 C 
ATOM     30  C   UNL     1      28.884  19.837  47.397  1.00  0.00     0.004 C 
ENDBRANCH  28  29
ENDBRANCH  27  28
ENDBRANCH  26  27
ENDBRANCH  25  26
ENDBRANCH  24  25
ENDBRANCH  23  24
ENDBRANCH  22  23
ENDBRANCH  21  22
ENDBRANCH  20  21
ENDBRANCH  19  20
ENDBRANCH  18  19
ENDBRANCH  17  18
ENDBRANCH   1  17
TORSDOF 26
ENDMDL
MODEL 8
REMARK VINA RESULT:    -3.192      2.815      8.705
REMARK INTER + INTRA:         -11.681
REMARK INTER:                  -7.744
REMARK INTRA:                  -3.937
REMARK UNBOUND:                -3.638
REMARK SMILES CCCCCCCCCCCCCCCCCCCCCCCCCCCC(=O)[O-]
REMARK SMILES IDX 15 1 16 2 17 3 18 4 19 5 20 6 21 7 22 8 23 9 24 10 25 11
REMARK SMILES IDX 26 12 27 13 28 14 29 15 30 16 14 17 13 18 12 19 11 20 10 21
REMARK SMILES IDX 9 22 8 23 7 24 6 25 5 26 4 27 3 28 2 29 1 30
REMARK H PARENT
REMARK Flexibility Score: inf
ROOT
ATOM      1  C   UNL     1      33.213  13.605  50.123  1.00  0.00     0.000 C 
ENDROOT
BRANCH   1   2
ATOM      2  C   UNL     1      34.575  14.323  50.063  1.00  0.00     0.000 C 
BRANCH   2   3
ATOM      3  C   UNL     1      35.697  13.528  49.369  1.00  0.00     0.000 C 
BRANCH   3   4
ATOM      4  C   UNL     1      36.703  14.428  48.636  1.00  0.00     0.000 C 
BRANCH   4   5
ATOM      5  C   UNL     1      36.840  14.006  47.166  1.00  0.00     0.000 C 
BRANCH   5   6
ATOM      6  C   UNL     1      35.710  14.552  46.276  1.00  0.00     0.000 C 
BRANCH   6   7
ATOM      7  C   UNL     1      35.082  15.879  46.754  1.00  0.00     0.000 C 
BRANCH   7   8
ATOM      8  C   UNL     1      35.828  17.152  46.314  1.00  0.00     0.000 C 
BRANCH   8   9
ATOM      9  C   UNL     1      35.936  18.247  47.391  1.00  0.00     0.000 C 
BRANCH   9  10
ATOM     10  C   UNL     1      35.294  17.864  48.742  1.00  0.00     0.000 C 
BRANCH  10  11
ATOM     11  C   UNL     1      34.414  18.959  49.379  1.00  0.00     0.000 C 
BRANCH  11  12
ATOM     12  C   UNL     1      32.976  18.533  49.736  1.00  0.00     0.006 C 
BRANCH  12  13
ATOM     13  C   UNL     1      32.475  17.339  48.913  1.00  0.00     0.053 C 
BRANCH  13  14
ATOM     14  C   UNL     1      30.998  17.162  49.076  1.00  0.00     0.041 C 
ATOM     15  O   UNL     1      30.519  16.024  49.326  1.00  0.00    -0.550 OA
ATOM     16  O   UNL     1      30.149  18.255  48.958  1.00  0.00    -0.550 OA
ENDBRANCH  13  14
ENDBRANCH  12  13
ENDBRANCH  11  12
ENDBRANCH  10  11
ENDBRANCH   9  10
ENDBRANCH   8   9
ENDBRANCH   7   8
ENDBRANCH   6   7
ENDBRANCH   5   6
ENDBRANCH   4   5
ENDBRANCH   3   4
ENDBRANCH   2   3
ENDBRANCH   1   2
BRANCH   1  17
ATOM     17  C   UNL     1      33.247  12.107  49.765  1.00  0.00     0.000 C 
BRANCH  17  18
ATOM     18  C   UNL     1      31.851  11.455  49.669  1.00  0.00     0.000 C 
BRANCH  18  19
ATOM     19  C   UNL     1      31.780  10.375  48.575  1.00  0.00     0.000 C 
BRANCH  19  20
ATOM     20  C   UNL     1      31.225   9.039  49.095  1.00  0.00     0.000 C 
BRANCH  20  21
ATOM     21  C   UNL     1      31.645   7.846  48.219  1.00  0.00     0.000 C 
BRANCH  21  22
ATOM     22  C   UNL     1      33.147   7.533  48.338  1.00  0.00    -0.000 C 
BRANCH  22  23
ATOM     23  C   UNL     1      33.583   7.293  49.794  1.00  0.00    -0.000 C 
BRANCH  23  24
ATOM     24  C   UNL     1      34.924   7.969  50.125  1.00  0.00    -0.000 C 
BRANCH  24  25
ATOM     25  C   UNL     1      35.059   9.353  49.466  1.00  0.00    -0.000 C 
BRANCH  25  26
ATOM     26  C   UNL     1      36.443   9.584  48.830  1.00  0.00    -0.000 C 
BRANCH  26  27
ATOM     27  C   UNL     1      36.448  10.462  47.565  1.00  0.00    -0.000 C 
BRANCH  27  28
ATOM     28  C   UNL     1      36.106   9.674  46.288  1.00  0.00    -0.000 C 
BRANCH  28  29
ATOM     29  C   UNL     1      34.687   9.969  45.777  1.00  0.00    -0.003 C 
ATOM     30  C   UNL     1      34.392   9.309  44.431  1.00  0.00     0.004 C 
ENDBRANCH  28  29
ENDBRANCH  27  28
ENDBRANCH  26  27
ENDBRANCH  25  26
ENDBRANCH  24  25
ENDBRANCH  23  24
ENDBRANCH  22  23
ENDBRANCH  21  22
ENDBRANCH  20  21
ENDBRANCH  19  20
ENDBRANCH  18  19
ENDBRANCH  17  18
ENDBRANCH   1  17
TORSDOF 26
ENDMDL
MODEL 9
REMARK VINA RESULT:    -3.135      2.453      8.448
REMARK INTER + INTRA:         -11.537
REMARK INTER:                  -7.323
REMARK INTRA:                  -4.215
REMARK UNBOUND:                -3.638
REMARK SMILES CCCCCCCCCCCCCCCCCCCCCCCCCCCC(=O)[O-]
REMARK SMILES IDX 15 1 16 2 17 3 18 4 19 5 20 6 21 7 22 8 23 9 24 10 25 11
REMARK SMILES IDX 26 12 27 13 28 14 29 15 30 16 14 17 13 18 12 19 11 20 10 21
REMARK SMILES IDX 9 22 8 23 7 24 6 25 5 26 4 27 3 28 2 29 1 30
REMARK H PARENT
REMARK Flexibility Score: inf
ROOT
ATOM      1  C   UNL     1      34.712  12.991  44.464  1.00  0.00     0.000 C 
ENDROOT
BRANCH   1   2
ATOM      2  C   UNL     1      35.516  13.733  45.549  1.00  0.00     0.000 C 
BRANCH   2   3
ATOM      3  C   UNL     1      36.704  14.560  45.023  1.00  0.00     0.000 C 
BRANCH   3   4
ATOM      4  C   UNL     1      37.934  14.492  45.941  1.00  0.00     0.000 C 
BRANCH   4   5
ATOM      5  C   UNL     1      37.635  13.650  47.190  1.00  0.00     0.000 C 
BRANCH   5   6
ATOM      6  C   UNL     1      37.552  14.490  48.475  1.00  0.00     0.000 C 
BRANCH   6   7
ATOM      7  C   UNL     1      36.576  13.956  49.546  1.00  0.00     0.000 C 
BRANCH   7   8
ATOM      8  C   UNL     1      35.114  13.815  49.088  1.00  0.00     0.000 C 
BRANCH   8   9
ATOM      9  C   UNL     1      34.456  15.120  48.603  1.00  0.00     0.000 C 
BRANCH   9  10
ATOM     10  C   UNL     1      34.139  16.122  49.735  1.00  0.00     0.000 C 
BRANCH  10  11
ATOM     11  C   UNL     1      35.104  17.320  49.834  1.00  0.00     0.000 C 
BRANCH  11  12
ATOM     12  C   UNL     1      35.200  18.203  48.573  1.00  0.00     0.006 C 
BRANCH  12  13
ATOM     13  C   UNL     1      36.575  18.146  47.895  1.00  0.00     0.053 C 
BRANCH  13  14
ATOM     14  C   UNL     1      36.435  17.876  46.429  1.00  0.00     0.041 C 
ATOM     15  O   UNL     1      37.415  18.043  45.657  1.00  0.00    -0.550 OA
ATOM     16  O   UNL     1      35.221  17.436  45.916  1.00  0.00    -0.550 OA
ENDBRANCH  13  14
ENDBRANCH  12  13
ENDBRANCH  11  12
ENDBRANCH  10  11
ENDBRANCH   9  10
ENDBRANCH   8   9
ENDBRANCH   7   8
ENDBRANCH   6   7
ENDBRANCH   5   6
ENDBRANCH   4   5
ENDBRANCH   3   4
ENDBRANCH   2   3
ENDBRANCH   1   2
BRANCH   1  17
ATOM     17  C   UNL     1      34.677  11.457  44.611  1.00  0.00     0.000 C 
BRANCH  17  18
ATOM     18  C   UNL     1      34.978  10.959  46.041  1.00  0.00     0.000 C 
BRANCH  18  19
ATOM     19  C   UNL     1      35.717   9.609  46.052  1.00  0.00     0.000 C 
BRANCH  19  20
ATOM     20  C   UNL     1      37.078   9.684  46.763  1.00  0.00     0.000 C 
BRANCH  20  21
ATOM     21  C   UNL     1      37.046  10.597  48.001  1.00  0.00     0.000 C 
BRANCH  21  22
ATOM     22  C   UNL     1      36.751   9.818  49.294  1.00  0.00    -0.000 C 
BRANCH  22  23
ATOM     23  C   UNL     1      35.542  10.386  50.059  1.00  0.00    -0.000 C 
BRANCH  23  24
ATOM     24  C   UNL     1      34.249   9.602  49.781  1.00  0.00    -0.000 C 
BRANCH  24  25
ATOM     25  C   UNL     1      33.140  10.492  49.194  1.00  0.00    -0.000 C 
BRANCH  25  26
ATOM     26  C   UNL     1      32.230   9.744  48.201  1.00  0.00    -0.000 C 
BRANCH  26  27
ATOM     27  C   UNL     1      30.920   9.193  48.793  1.00  0.00    -0.000 C 
BRANCH  27  28
ATOM     28  C   UNL     1      30.995   7.690  49.117  1.00  0.00    -0.000 C 
BRANCH  28  29
ATOM     29  C   UNL     1      30.625   6.809  47.913  1.00  0.00    -0.003 C 
ATOM     30  C   UNL     1      29.246   6.166  48.049  1.00  0.00     0.004 C 
ENDBRANCH  28  29
ENDBRANCH  27  28
ENDBRANCH  26  27
ENDBRANCH  25  26
ENDBRANCH  24  25
ENDBRANCH  23  24
ENDBRANCH  22  23
ENDBRANCH  21  22
ENDBRANCH  20  21
ENDBRANCH  19  20
ENDBRANCH  18  19
ENDBRANCH  17  18
ENDBRANCH   1  17
TORSDOF 26
ENDMDL
