MODEL 1
REMARK VINA RESULT:    -4.082      0.000      0.000
REMARK INTER + INTRA:         -15.983
REMARK INTER:                 -10.763
REMARK INTRA:                  -5.219
REMARK UNBOUND:                -5.219
REMARK SMILES CCCCCCCCCCCCCCCCCCCCCCCCCCCCCC(=O)[O-]
REMARK SMILES IDX 16 1 17 2 18 3 19 4 20 5 21 6 22 7 23 8 24 9 25 10 26 11
REMARK SMILES IDX 27 12 28 13 29 14 30 15 31 16 32 17 15 18 14 19 13 20 12 21
REMARK SMILES IDX 11 22 10 23 9 24 8 25 7 26 6 27 5 28 4 29 3 30 2 31 1 32
REMARK H PARENT
REMARK Flexibility Score: inf
ROOT
ATOM      1  C   UNL     1     -32.946   6.074  -3.065  1.00  0.00     0.000 C 
ENDROOT
BRANCH   1   2
ATOM      2  C   UNL     1     -32.466   5.000  -2.072  1.00  0.00     0.000 C 
BRANCH   2   3
ATOM      3  C   UNL     1     -32.830   5.255  -0.599  1.00  0.00     0.000 C 
BRANCH   3   4
ATOM      4  C   UNL     1     -33.336   3.993   0.121  1.00  0.00     0.000 C 
BRANCH   4   5
ATOM      5  C   UNL     1     -32.385   3.520   1.237  1.00  0.00     0.000 C 
BRANCH   5   6
ATOM      6  C   UNL     1     -31.153   2.721   0.761  1.00  0.00     0.000 C 
BRANCH   6   7
ATOM      7  C   UNL     1     -30.495   1.827   1.828  1.00  0.00     0.000 C 
BRANCH   7   8
ATOM      8  C   UNL     1     -28.958   1.888   1.789  1.00  0.00     0.000 C 
BRANCH   8   9
ATOM      9  C   UNL     1     -28.423   2.470   0.470  1.00  0.00     0.000 C 
BRANCH   9  10
ATOM     10  C   UNL     1     -27.387   3.584   0.693  1.00  0.00     0.000 C 
BRANCH  10  11
ATOM     11  C   UNL     1     -27.338   4.598  -0.465  1.00  0.00     0.000 C 
BRANCH  11  12
ATOM     12  C   UNL     1     -28.223   4.253  -1.677  1.00  0.00     0.000 C 
BRANCH  12  13
ATOM     13  C   UNL     1     -28.876   5.490  -2.315  1.00  0.00     0.006 C 
BRANCH  13  14
ATOM     14  C   UNL     1     -28.678   6.753  -1.466  1.00  0.00     0.053 C 
BRANCH  14  15
ATOM     15  C   UNL     1     -29.633   7.840  -1.854  1.00  0.00     0.041 C 
ATOM     16  O   UNL     1     -29.679   8.250  -3.043  1.00  0.00    -0.550 OA
ATOM     17  O   UNL     1     -30.455   8.419  -0.894  1.00  0.00    -0.550 OA
ENDBRANCH  14  15
ENDBRANCH  13  14
ENDBRANCH  12  13
ENDBRANCH  11  12
ENDBRANCH  10  11
ENDBRANCH   9  10
ENDBRANCH   8   9
ENDBRANCH   7   8
ENDBRANCH   6   7
ENDBRANCH   5   6
ENDBRANCH   4   5
ENDBRANCH   3   4
ENDBRANCH   2   3
ENDBRANCH   1   2
BRANCH   1  18
ATOM     18  C   UNL     1     -33.432   7.359  -2.372  1.00  0.00     0.000 C 
BRANCH  18  19
ATOM     19  C   UNL     1     -34.905   7.669  -2.682  1.00  0.00     0.000 C 
BRANCH  19  20
ATOM     20  C   UNL     1     -35.846   7.251  -1.539  1.00  0.00     0.000 C 
BRANCH  20  21
ATOM     21  C   UNL     1     -36.376   5.818  -1.701  1.00  0.00     0.000 C 
BRANCH  21  22
ATOM     22  C   UNL     1     -36.628   5.442  -3.171  1.00  0.00     0.000 C 
BRANCH  22  23
ATOM     23  C   UNL     1     -36.707   3.921  -3.392  1.00  0.00     0.000 C 
BRANCH  23  24
ATOM     24  C   UNL     1     -35.666   3.085  -2.617  1.00  0.00    -0.000 C 
BRANCH  24  25
ATOM     25  C   UNL     1     -34.756   2.198  -3.485  1.00  0.00    -0.000 C 
BRANCH  25  26
ATOM     26  C   UNL     1     -35.495   0.988  -4.084  1.00  0.00    -0.000 C 
BRANCH  26  27
ATOM     27  C   UNL     1     -35.299   0.859  -5.606  1.00  0.00    -0.000 C 
BRANCH  27  28
ATOM     28  C   UNL     1     -36.192   1.777  -6.460  1.00  0.00    -0.000 C 
BRANCH  28  29
ATOM     29  C   UNL     1     -35.387   2.737  -7.353  1.00  0.00    -0.000 C 
BRANCH  29  30
ATOM     30  C   UNL     1     -35.662   4.213  -7.033  1.00  0.00    -0.000 C 
BRANCH  30  31
ATOM     31  C   UNL     1     -34.533   4.862  -6.220  1.00  0.00    -0.003 C 
ATOM     32  C   UNL     1     -33.252   4.036  -6.302  1.00  0.00     0.004 C 
ENDBRANCH  30  31
ENDBRANCH  29  30
ENDBRANCH  28  29
ENDBRANCH  27  28
ENDBRANCH  26  27
ENDBRANCH  25  26
ENDBRANCH  24  25
ENDBRANCH  23  24
ENDBRANCH  22  23
ENDBRANCH  21  22
ENDBRANCH  20  21
ENDBRANCH  19  20
ENDBRANCH  18  19
ENDBRANCH   1  18
TORSDOF 28
ENDMDL
MODEL 2
REMARK VINA RESULT:    -4.035      2.699      7.573
REMARK INTER + INTRA:         -15.859
REMARK INTER:                  -9.617
REMARK INTRA:                  -6.241
REMARK UNBOUND:                -5.219
REMARK SMILES CCCCCCCCCCCCCCCCCCCCCCCCCCCCCC(=O)[O-]
REMARK SMILES IDX 16 1 17 2 18 3 19 4 20 5 21 6 22 7 23 8 24 9 25 10 26 11
REMARK SMILES IDX 27 12 28 13 29 14 30 15 31 16 32 17 15 18 14 19 13 20 12 21
REMARK SMILES IDX 11 22 10 23 9 24 8 25 7 26 6 27 5 28 4 29 3 30 2 31 1 32
REMARK H PARENT
REMARK Flexibility Score: inf
ROOT
ATOM      1  C   UNL     1     -32.504   4.430  -5.926  1.00  0.00     0.000 C 
ENDROOT
BRANCH   1   2
ATOM      2  C   UNL     1     -33.830   3.667  -6.095  1.00  0.00     0.000 C 
BRANCH   2   3
ATOM      3  C   UNL     1     -34.513   3.236  -4.785  1.00  0.00     0.000 C 
BRANCH   3   4
ATOM      4  C   UNL     1     -36.036   3.460  -4.801  1.00  0.00     0.000 C 
BRANCH   4   5
ATOM      5  C   UNL     1     -36.437   4.793  -5.460  1.00  0.00     0.000 C 
BRANCH   5   6
ATOM      6  C   UNL     1     -36.745   5.947  -4.482  1.00  0.00     0.000 C 
BRANCH   6   7
ATOM      7  C   UNL     1     -35.980   7.256  -4.748  1.00  0.00     0.000 C 
BRANCH   7   8
ATOM      8  C   UNL     1     -35.544   7.964  -3.452  1.00  0.00     0.000 C 
BRANCH   8   9
ATOM      9  C   UNL     1     -36.143   7.314  -2.194  1.00  0.00     0.000 C 
BRANCH   9  10
ATOM     10  C   UNL     1     -35.066   6.782  -1.234  1.00  0.00     0.000 C 
BRANCH  10  11
ATOM     11  C   UNL     1     -34.839   5.265  -1.368  1.00  0.00     0.000 C 
BRANCH  11  12
ATOM     12  C   UNL     1     -33.510   4.747  -0.789  1.00  0.00     0.000 C 
BRANCH  12  13
ATOM     13  C   UNL     1     -32.988   3.494  -1.513  1.00  0.00     0.006 C 
BRANCH  13  14
ATOM     14  C   UNL     1     -32.886   2.283  -0.574  1.00  0.00     0.053 C 
BRANCH  14  15
ATOM     15  C   UNL     1     -34.112   1.425  -0.639  1.00  0.00     0.041 C 
ATOM     16  O   UNL     1     -34.288   0.505   0.202  1.00  0.00    -0.550 OA
ATOM     17  O   UNL     1     -35.048   1.624  -1.648  1.00  0.00    -0.550 OA
ENDBRANCH  14  15
ENDBRANCH  13  14
ENDBRANCH  12  13
ENDBRANCH  11  12
ENDBRANCH  10  11
ENDBRANCH   9  10
ENDBRANCH   8   9
ENDBRANCH   7   8
ENDBRANCH   6   7
ENDBRANCH   5   6
ENDBRANCH   4   5
ENDBRANCH   3   4
ENDBRANCH   2   3
ENDBRANCH   1   2
BRANCH   1  18
ATOM     18  C   UNL     1     -32.701   5.885  -5.469  1.00  0.00     0.000 C 
BRANCH  18  19
ATOM     19  C   UNL     1     -32.177   6.127  -4.044  1.00  0.00     0.000 C 
BRANCH  19  20
ATOM     20  C   UNL     1     -31.787   7.596  -3.803  1.00  0.00     0.000 C 
BRANCH  20  21
ATOM     21  C   UNL     1     -32.025   8.043  -2.352  1.00  0.00     0.000 C 
BRANCH  21  22
ATOM     22  C   UNL     1     -31.008   7.434  -1.371  1.00  0.00     0.000 C 
BRANCH  22  23
ATOM     23  C   UNL     1     -29.873   8.408  -1.009  1.00  0.00     0.000 C 
BRANCH  23  24
ATOM     24  C   UNL     1     -28.464   7.984  -1.474  1.00  0.00    -0.000 C 
BRANCH  24  25
ATOM     25  C   UNL     1     -28.150   8.254  -2.957  1.00  0.00    -0.000 C 
BRANCH  25  26
ATOM     26  C   UNL     1     -28.172   6.976  -3.815  1.00  0.00    -0.000 C 
BRANCH  26  27
ATOM     27  C   UNL     1     -27.913   5.699  -2.995  1.00  0.00    -0.000 C 
BRANCH  27  28
ATOM     28  C   UNL     1     -28.533   4.415  -3.574  1.00  0.00    -0.000 C 
BRANCH  28  29
ATOM     29  C   UNL     1     -29.487   3.713  -2.591  1.00  0.00    -0.000 C 
BRANCH  29  30
ATOM     30  C   UNL     1     -29.329   4.220  -1.150  1.00  0.00    -0.000 C 
BRANCH  30  31
ATOM     31  C   UNL     1     -28.483   3.277  -0.281  1.00  0.00    -0.003 C 
ATOM     32  C   UNL     1     -27.178   3.944   0.144  1.00  0.00     0.004 C 
ENDBRANCH  30  31
ENDBRANCH  29  30
ENDBRANCH  28  29
ENDBRANCH  27  28
ENDBRANCH  26  27
ENDBRANCH  25  26
ENDBRANCH  24  25
ENDBRANCH  23  24
ENDBRANCH  22  23
ENDBRANCH  21  22
ENDBRANCH  20  21
ENDBRANCH  19  20
ENDBRANCH  18  19
ENDBRANCH   1  18
TORSDOF 28
ENDMDL
MODEL 3
REMARK VINA RESULT:    -4.030      2.076      7.241
REMARK INTER + INTRA:         -15.846
REMARK INTER:                 -10.049
REMARK INTRA:                  -5.798
REMARK UNBOUND:                -5.219
REMARK SMILES CCCCCCCCCCCCCCCCCCCCCCCCCCCCCC(=O)[O-]
REMARK SMILES IDX 16 1 17 2 18 3 19 4 20 5 21 6 22 7 23 8 24 9 25 10 26 11
REMARK SMILES IDX 27 12 28 13 29 14 30 15 31 16 32 17 15 18 14 19 13 20 12 21
REMARK SMILES IDX 11 22 10 23 9 24 8 25 7 26 6 27 5 28 4 29 3 30 2 31 1 32
REMARK H PARENT
REMARK Flexibility Score: inf
ROOT
ATOM      1  C   UNL     1     -35.939   7.433  -3.827  1.00  0.00     0.000 C 
ENDROOT
BRANCH   1   2
ATOM      2  C   UNL     1     -35.278   7.028  -5.156  1.00  0.00     0.000 C 
BRANCH   2   3
ATOM      3  C   UNL     1     -34.839   5.556  -5.252  1.00  0.00     0.000 C 
BRANCH   3   4
ATOM      4  C   UNL     1     -34.956   4.987  -6.677  1.00  0.00     0.000 C 
BRANCH   4   5
ATOM      5  C   UNL     1     -34.410   3.551  -6.794  1.00  0.00     0.000 C 
BRANCH   5   6
ATOM      6  C   UNL     1     -35.418   2.500  -7.303  1.00  0.00     0.000 C 
BRANCH   6   7
ATOM      7  C   UNL     1     -36.376   1.935  -6.238  1.00  0.00     0.000 C 
BRANCH   7   8
ATOM      8  C   UNL     1     -35.832   0.664  -5.563  1.00  0.00     0.000 C 
BRANCH   8   9
ATOM      9  C   UNL     1     -35.598   0.851  -4.054  1.00  0.00     0.000 C 
BRANCH   9  10
ATOM     10  C   UNL     1     -35.763   2.313  -3.609  1.00  0.00     0.000 C 
BRANCH  10  11
ATOM     11  C   UNL     1     -34.495   2.885  -2.948  1.00  0.00     0.000 C 
BRANCH  11  12
ATOM     12  C   UNL     1     -34.507   2.899  -1.408  1.00  0.00     0.000 C 
BRANCH  12  13
ATOM     13  C   UNL     1     -33.424   1.998  -0.792  1.00  0.00     0.006 C 
BRANCH  13  14
ATOM     14  C   UNL     1     -32.012   2.563  -1.000  1.00  0.00     0.053 C 
BRANCH  14  15
ATOM     15  C   UNL     1     -31.402   3.026   0.287  1.00  0.00     0.041 C 
ATOM     16  O   UNL     1     -30.169   2.880   0.494  1.00  0.00    -0.550 OA
ATOM     17  O   UNL     1     -32.203   3.595   1.270  1.00  0.00    -0.550 OA
ENDBRANCH  14  15
ENDBRANCH  13  14
ENDBRANCH  12  13
ENDBRANCH  11  12
ENDBRANCH  10  11
ENDBRANCH   9  10
ENDBRANCH   8   9
ENDBRANCH   7   8
ENDBRANCH   6   7
ENDBRANCH   5   6
ENDBRANCH   4   5
ENDBRANCH   3   4
ENDBRANCH   2   3
ENDBRANCH   1   2
BRANCH   1  18
ATOM     18  C   UNL     1     -36.345   6.225  -2.965  1.00  0.00     0.000 C 
BRANCH  18  19
ATOM     19  C   UNL     1     -36.016   6.431  -1.477  1.00  0.00     0.000 C 
BRANCH  19  20
ATOM     20  C   UNL     1     -34.643   7.094  -1.266  1.00  0.00     0.000 C 
BRANCH  20  21
ATOM     21  C   UNL     1     -33.591   6.115  -0.721  1.00  0.00     0.000 C 
BRANCH  21  22
ATOM     22  C   UNL     1     -32.203   6.328  -1.350  1.00  0.00     0.000 C 
BRANCH  22  23
ATOM     23  C   UNL     1     -32.119   5.810  -2.797  1.00  0.00     0.000 C 
BRANCH  23  24
ATOM     24  C   UNL     1     -31.621   6.835  -3.839  1.00  0.00    -0.000 C 
BRANCH  24  25
ATOM     25  C   UNL     1     -31.861   8.312  -3.477  1.00  0.00    -0.000 C 
BRANCH  25  26
ATOM     26  C   UNL     1     -30.554   9.098  -3.274  1.00  0.00    -0.000 C 
BRANCH  26  27
ATOM     27  C   UNL     1     -30.153   9.222  -1.793  1.00  0.00    -0.000 C 
BRANCH  27  28
ATOM     28  C   UNL     1     -28.669   8.946  -1.492  1.00  0.00    -0.000 C 
BRANCH  28  29
ATOM     29  C   UNL     1     -28.182   7.600  -2.058  1.00  0.00    -0.000 C 
BRANCH  29  30
ATOM     30  C   UNL     1     -28.566   6.411  -1.166  1.00  0.00    -0.000 C 
BRANCH  30  31
ATOM     31  C   UNL     1     -27.839   5.117  -1.562  1.00  0.00    -0.003 C 
ATOM     32  C   UNL     1     -28.704   4.260  -2.481  1.00  0.00     0.004 C 
ENDBRANCH  30  31
ENDBRANCH  29  30
ENDBRANCH  28  29
ENDBRANCH  27  28
ENDBRANCH  26  27
ENDBRANCH  25  26
ENDBRANCH  24  25
ENDBRANCH  23  24
ENDBRANCH  22  23
ENDBRANCH  21  22
ENDBRANCH  20  21
ENDBRANCH  19  20
ENDBRANCH  18  19
ENDBRANCH   1  18
TORSDOF 28
ENDMDL
MODEL 4
REMARK VINA RESULT:    -4.023      2.752      7.154
REMARK INTER + INTRA:         -15.826
REMARK INTER:                  -9.939
REMARK INTRA:                  -5.887
REMARK UNBOUND:                -5.219
REMARK SMILES CCCCCCCCCCCCCCCCCCCCCCCCCCCCCC(=O)[O-]
REMARK SMILES IDX 16 1 17 2 18 3 19 4 20 5 21 6 22 7 23 8 24 9 25 10 26 11
REMARK SMILES IDX 27 12 28 13 29 14 30 15 31 16 32 17 15 18 14 19 13 20 12 21
REMARK SMILES IDX 11 22 10 23 9 24 8 25 7 26 6 27 5 28 4 29 3 30 2 31 1 32
REMARK H PARENT
REMARK Flexibility Score: inf
ROOT
ATOM      1  C   UNL     1     -36.004   6.991  -4.501  1.00  0.00     0.000 C 
ENDROOT
BRANCH   1   2
ATOM      2  C   UNL     1     -34.692   6.783  -5.279  1.00  0.00     0.000 C 
BRANCH   2   3
ATOM      3  C   UNL     1     -33.980   5.443  -5.024  1.00  0.00     0.000 C 
BRANCH   3   4
ATOM      4  C   UNL     1     -33.374   4.833  -6.299  1.00  0.00     0.000 C 
BRANCH   4   5
ATOM      5  C   UNL     1     -34.026   3.493  -6.690  1.00  0.00     0.000 C 
BRANCH   5   6
ATOM      6  C   UNL     1     -35.566   3.509  -6.781  1.00  0.00     0.000 C 
BRANCH   6   7
ATOM      7  C   UNL     1     -36.268   2.231  -6.288  1.00  0.00     0.000 C 
BRANCH   7   8
ATOM      8  C   UNL     1     -35.283   1.185  -5.736  1.00  0.00     0.000 C 
BRANCH   8   9
ATOM      9  C   UNL     1     -35.550   0.845  -4.260  1.00  0.00     0.000 C 
BRANCH   9  10
ATOM     10  C   UNL     1     -35.655   2.098  -3.375  1.00  0.00     0.000 C 
BRANCH  10  11
ATOM     11  C   UNL     1     -34.283   2.614  -2.902  1.00  0.00     0.000 C 
BRANCH  11  12
ATOM     12  C   UNL     1     -34.178   2.911  -1.395  1.00  0.00     0.000 C 
BRANCH  12  13
ATOM     13  C   UNL     1     -34.210   1.641  -0.529  1.00  0.00     0.006 C 
BRANCH  13  14
ATOM     14  C   UNL     1     -32.888   1.415   0.218  1.00  0.00     0.053 C 
BRANCH  14  15
ATOM     15  C   UNL     1     -33.109   0.803   1.567  1.00  0.00     0.041 C 
ATOM     16  O   UNL     1     -32.167   0.743   2.399  1.00  0.00    -0.550 OA
ATOM     17  O   UNL     1     -34.352   0.275   1.896  1.00  0.00    -0.550 OA
ENDBRANCH  14  15
ENDBRANCH  13  14
ENDBRANCH  12  13
ENDBRANCH  11  12
ENDBRANCH  10  11
ENDBRANCH   9  10
ENDBRANCH   8   9
ENDBRANCH   7   8
ENDBRANCH   6   7
ENDBRANCH   5   6
ENDBRANCH   4   5
ENDBRANCH   3   4
ENDBRANCH   2   3
ENDBRANCH   1   2
BRANCH   1  18
ATOM     18  C   UNL     1     -36.556   5.689  -3.895  1.00  0.00     0.000 C 
BRANCH  18  19
ATOM     19  C   UNL     1     -36.530   5.702  -2.358  1.00  0.00     0.000 C 
BRANCH  19  20
ATOM     20  C   UNL     1     -35.986   7.026  -1.792  1.00  0.00     0.000 C 
BRANCH  20  21
ATOM     21  C   UNL     1     -34.679   6.841  -1.005  1.00  0.00     0.000 C 
BRANCH  21  22
ATOM     22  C   UNL     1     -33.438   7.265  -1.809  1.00  0.00     0.000 C 
BRANCH  22  23
ATOM     23  C   UNL     1     -32.304   6.227  -1.745  1.00  0.00     0.000 C 
BRANCH  23  24
ATOM     24  C   UNL     1     -31.932   5.741  -0.328  1.00  0.00    -0.000 C 
BRANCH  24  25
ATOM     25  C   UNL     1     -31.003   4.514  -0.276  1.00  0.00    -0.000 C 
BRANCH  25  26
ATOM     26  C   UNL     1     -30.608   4.003  -1.672  1.00  0.00    -0.000 C 
BRANCH  26  27
ATOM     27  C   UNL     1     -29.143   3.535  -1.747  1.00  0.00    -0.000 C 
BRANCH  27  28
ATOM     28  C   UNL     1     -28.132   4.615  -2.173  1.00  0.00    -0.000 C 
BRANCH  28  29
ATOM     29  C   UNL     1     -28.758   5.708  -3.057  1.00  0.00    -0.000 C 
BRANCH  29  30
ATOM     30  C   UNL     1     -28.360   7.124  -2.616  1.00  0.00    -0.000 C 
BRANCH  30  31
ATOM     31  C   UNL     1     -28.708   7.406  -1.147  1.00  0.00    -0.003 C 
ATOM     32  C   UNL     1     -29.567   8.660  -1.016  1.00  0.00     0.004 C 
ENDBRANCH  30  31
ENDBRANCH  29  30
ENDBRANCH  28  29
ENDBRANCH  27  28
ENDBRANCH  26  27
ENDBRANCH  25  26
ENDBRANCH  24  25
ENDBRANCH  23  24
ENDBRANCH  22  23
ENDBRANCH  21  22
ENDBRANCH  20  21
ENDBRANCH  19  20
ENDBRANCH  18  19
ENDBRANCH   1  18
TORSDOF 28
ENDMDL
MODEL 5
REMARK VINA RESULT:    -4.010      2.554      4.416
REMARK INTER + INTRA:         -15.793
REMARK INTER:                  -9.932
REMARK INTRA:                  -5.861
REMARK UNBOUND:                -5.219
REMARK SMILES CCCCCCCCCCCCCCCCCCCCCCCCCCCCCC(=O)[O-]
REMARK SMILES IDX 16 1 17 2 18 3 19 4 20 5 21 6 22 7 23 8 24 9 25 10 26 11
REMARK SMILES IDX 27 12 28 13 29 14 30 15 31 16 32 17 15 18 14 19 13 20 12 21
REMARK SMILES IDX 11 22 10 23 9 24 8 25 7 26 6 27 5 28 4 29 3 30 2 31 1 32
REMARK H PARENT
REMARK Flexibility Score: inf
ROOT
ATOM      1  C   UNL     1     -34.300   7.742  -2.042  1.00  0.00     0.000 C 
ENDROOT
BRANCH   1   2
ATOM      2  C   UNL     1     -33.695   6.624  -1.174  1.00  0.00     0.000 C 
BRANCH   2   3
ATOM      3  C   UNL     1     -32.254   6.871  -0.693  1.00  0.00     0.000 C 
BRANCH   3   4
ATOM      4  C   UNL     1     -31.241   6.948  -1.849  1.00  0.00     0.000 C 
BRANCH   4   5
ATOM      5  C   UNL     1     -29.833   7.364  -1.383  1.00  0.00     0.000 C 
BRANCH   5   6
ATOM      6  C   UNL     1     -28.680   6.971  -2.330  1.00  0.00     0.000 C 
BRANCH   6   7
ATOM      7  C   UNL     1     -28.385   5.463  -2.418  1.00  0.00     0.000 C 
BRANCH   7   8
ATOM      8  C   UNL     1     -27.762   4.901  -1.128  1.00  0.00     0.000 C 
BRANCH   8   9
ATOM      9  C   UNL     1     -28.439   3.600  -0.664  1.00  0.00     0.000 C 
BRANCH   9  10
ATOM     10  C   UNL     1     -29.958   3.757  -0.484  1.00  0.00     0.000 C 
BRANCH  10  11
ATOM     11  C   UNL     1     -30.770   2.853  -1.430  1.00  0.00     0.000 C 
BRANCH  11  12
ATOM     12  C   UNL     1     -32.246   3.250  -1.610  1.00  0.00     0.000 C 
BRANCH  12  13
ATOM     13  C   UNL     1     -33.083   3.048  -0.336  1.00  0.00     0.006 C 
BRANCH  13  14
ATOM     14  C   UNL     1     -33.710   1.649  -0.270  1.00  0.00     0.053 C 
BRANCH  14  15
ATOM     15  C   UNL     1     -33.210   0.870   0.909  1.00  0.00     0.041 C 
ATOM     16  O   UNL     1     -33.021   1.442   2.014  1.00  0.00    -0.550 OA
ATOM     17  O   UNL     1     -32.927  -0.484   0.778  1.00  0.00    -0.550 OA
ENDBRANCH  14  15
ENDBRANCH  13  14
ENDBRANCH  12  13
ENDBRANCH  11  12
ENDBRANCH  10  11
ENDBRANCH   9  10
ENDBRANCH   8   9
ENDBRANCH   7   8
ENDBRANCH   6   7
ENDBRANCH   5   6
ENDBRANCH   4   5
ENDBRANCH   3   4
ENDBRANCH   2   3
ENDBRANCH   1   2
BRANCH   1  18
ATOM     18  C   UNL     1     -35.783   7.507  -2.376  1.00  0.00     0.000 C 
BRANCH  18  19
ATOM     19  C   UNL     1     -36.355   6.272  -1.661  1.00  0.00     0.000 C 
BRANCH  19  20
ATOM     20  C   UNL     1     -36.765   5.162  -2.646  1.00  0.00     0.000 C 
BRANCH  20  21
ATOM     21  C   UNL     1     -35.772   3.989  -2.664  1.00  0.00     0.000 C 
BRANCH  21  22
ATOM     22  C   UNL     1     -36.331   2.750  -3.384  1.00  0.00     0.000 C 
BRANCH  22  23
ATOM     23  C   UNL     1     -35.258   1.678  -3.644  1.00  0.00     0.000 C 
BRANCH  23  24
ATOM     24  C   UNL     1     -34.935   1.413  -5.130  1.00  0.00    -0.000 C 
BRANCH  24  25
ATOM     25  C   UNL     1     -35.975   1.939  -6.135  1.00  0.00    -0.000 C 
BRANCH  25  26
ATOM     26  C   UNL     1     -35.334   2.566  -7.386  1.00  0.00    -0.000 C 
BRANCH  26  27
ATOM     27  C   UNL     1     -35.903   3.958  -7.717  1.00  0.00    -0.000 C 
BRANCH  27  28
ATOM     28  C   UNL     1     -36.766   4.592  -6.611  1.00  0.00    -0.000 C 
BRANCH  28  29
ATOM     29  C   UNL     1     -36.172   5.899  -6.060  1.00  0.00    -0.000 C 
BRANCH  29  30
ATOM     30  C   UNL     1     -34.671   6.038  -6.358  1.00  0.00    -0.000 C 
BRANCH  30  31
ATOM     31  C   UNL     1     -33.805   5.927  -5.094  1.00  0.00    -0.003 C 
ATOM     32  C   UNL     1     -33.025   4.616  -5.076  1.00  0.00     0.004 C 
ENDBRANCH  30  31
ENDBRANCH  29  30
ENDBRANCH  28  29
ENDBRANCH  27  28
ENDBRANCH  26  27
ENDBRANCH  25  26
ENDBRANCH  24  25
ENDBRANCH  23  24
ENDBRANCH  22  23
ENDBRANCH  21  22
ENDBRANCH  20  21
ENDBRANCH  19  20
ENDBRANCH  18  19
ENDBRANCH   1  18
TORSDOF 28
ENDMDL
MODEL 6
REMARK VINA RESULT:    -3.983      2.824      7.906
REMARK INTER + INTRA:         -15.723
REMARK INTER:                  -9.497
REMARK INTRA:                  -6.226
REMARK UNBOUND:                -5.219
REMARK SMILES CCCCCCCCCCCCCCCCCCCCCCCCCCCCCC(=O)[O-]
REMARK SMILES IDX 16 1 17 2 18 3 19 4 20 5 21 6 22 7 23 8 24 9 25 10 26 11
REMARK SMILES IDX 27 12 28 13 29 14 30 15 31 16 32 17 15 18 14 19 13 20 12 21
REMARK SMILES IDX 11 22 10 23 9 24 8 25 7 26 6 27 5 28 4 29 3 30 2 31 1 32
REMARK H PARENT
REMARK Flexibility Score: inf
ROOT
ATOM      1  C   UNL     1     -31.210   7.126  -3.030  1.00  0.00     0.000 C 
ENDROOT
BRANCH   1   2
ATOM      2  C   UNL     1     -31.904   5.769  -3.247  1.00  0.00     0.000 C 
BRANCH   2   3
ATOM      3  C   UNL     1     -32.098   5.356  -4.717  1.00  0.00     0.000 C 
BRANCH   3   4
ATOM      4  C   UNL     1     -33.499   5.696  -5.255  1.00  0.00     0.000 C 
BRANCH   4   5
ATOM      5  C   UNL     1     -33.474   6.784  -6.345  1.00  0.00     0.000 C 
BRANCH   5   6
ATOM      6  C   UNL     1     -34.526   7.902  -6.187  1.00  0.00     0.000 C 
BRANCH   6   7
ATOM      7  C   UNL     1     -35.693   7.580  -5.237  1.00  0.00     0.000 C 
BRANCH   7   8
ATOM      8  C   UNL     1     -35.824   8.596  -4.088  1.00  0.00     0.000 C 
BRANCH   8   9
ATOM      9  C   UNL     1     -34.561   8.665  -3.214  1.00  0.00     0.000 C 
BRANCH   9  10
ATOM     10  C   UNL     1     -34.603   7.677  -2.037  1.00  0.00     0.000 C 
BRANCH  10  11
ATOM     11  C   UNL     1     -36.036   7.358  -1.573  1.00  0.00     0.000 C 
BRANCH  11  12
ATOM     12  C   UNL     1     -36.344   5.862  -1.378  1.00  0.00     0.000 C 
BRANCH  12  13
ATOM     13  C   UNL     1     -36.687   5.143  -2.694  1.00  0.00     0.006 C 
BRANCH  13  14
ATOM     14  C   UNL     1     -35.835   3.884  -2.906  1.00  0.00     0.053 C 
BRANCH  14  15
ATOM     15  C   UNL     1     -36.156   3.207  -4.203  1.00  0.00     0.041 C 
ATOM     16  O   UNL     1     -35.841   2.002  -4.385  1.00  0.00    -0.550 OA
ATOM     17  O   UNL     1     -36.782   3.916  -5.221  1.00  0.00    -0.550 OA
ENDBRANCH  14  15
ENDBRANCH  13  14
ENDBRANCH  12  13
ENDBRANCH  11  12
ENDBRANCH  10  11
ENDBRANCH   9  10
ENDBRANCH   8   9
ENDBRANCH   7   8
ENDBRANCH   6   7
ENDBRANCH   5   6
ENDBRANCH   4   5
ENDBRANCH   3   4
ENDBRANCH   2   3
ENDBRANCH   1   2
BRANCH   1  18
ATOM     18  C   UNL     1     -30.862   7.393  -1.556  1.00  0.00     0.000 C 
BRANCH  18  19
ATOM     19  C   UNL     1     -29.999   8.653  -1.377  1.00  0.00     0.000 C 
BRANCH  19  20
ATOM     20  C   UNL     1     -28.497   8.365  -1.550  1.00  0.00     0.000 C 
BRANCH  20  21
ATOM     21  C   UNL     1     -27.915   8.995  -2.825  1.00  0.00     0.000 C 
BRANCH  21  22
ATOM     22  C   UNL     1     -27.953   8.039  -4.029  1.00  0.00     0.000 C 
BRANCH  22  23
ATOM     23  C   UNL     1     -27.363   6.654  -3.709  1.00  0.00     0.000 C 
BRANCH  23  24
ATOM     24  C   UNL     1     -28.187   5.451  -4.215  1.00  0.00    -0.000 C 
BRANCH  24  25
ATOM     25  C   UNL     1     -28.466   4.357  -3.169  1.00  0.00    -0.000 C 
BRANCH  25  26
ATOM     26  C   UNL     1     -28.213   4.830  -1.726  1.00  0.00    -0.000 C 
BRANCH  26  27
ATOM     27  C   UNL     1     -29.055   4.065  -0.689  1.00  0.00    -0.000 C 
BRANCH  27  28
ATOM     28  C   UNL     1     -29.872   2.887  -1.250  1.00  0.00    -0.000 C 
BRANCH  28  29
ATOM     29  C   UNL     1     -31.364   2.961  -0.881  1.00  0.00    -0.000 C 
BRANCH  29  30
ATOM     30  C   UNL     1     -31.691   4.159   0.021  1.00  0.00    -0.000 C 
BRANCH  30  31
ATOM     31  C   UNL     1     -33.171   4.565  -0.049  1.00  0.00    -0.003 C 
ATOM     32  C   UNL     1     -34.077   3.412   0.374  1.00  0.00     0.004 C 
ENDBRANCH  30  31
ENDBRANCH  29  30
ENDBRANCH  28  29
ENDBRANCH  27  28
ENDBRANCH  26  27
ENDBRANCH  25  26
ENDBRANCH  24  25
ENDBRANCH  23  24
ENDBRANCH  22  23
ENDBRANCH  21  22
ENDBRANCH  20  21
ENDBRANCH  19  20
ENDBRANCH  18  19
ENDBRANCH   1  18
TORSDOF 28
ENDMDL
MODEL 7
REMARK VINA RESULT:    -3.980      3.154      5.411
REMARK INTER + INTRA:         -15.713
REMARK INTER:                  -9.493
REMARK INTRA:                  -6.220
REMARK UNBOUND:                -5.219
REMARK SMILES CCCCCCCCCCCCCCCCCCCCCCCCCCCCCC(=O)[O-]
REMARK SMILES IDX 16 1 17 2 18 3 19 4 20 5 21 6 22 7 23 8 24 9 25 10 26 11
REMARK SMILES IDX 27 12 28 13 29 14 30 15 31 16 32 17 15 18 14 19 13 20 12 21
REMARK SMILES IDX 11 22 10 23 9 24 8 25 7 26 6 27 5 28 4 29 3 30 2 31 1 32
REMARK H PARENT
REMARK Flexibility Score: inf
ROOT
ATOM      1  C   UNL     1     -29.600   8.544  -2.509  1.00  0.00     0.000 C 
ENDROOT
BRANCH   1   2
ATOM      2  C   UNL     1     -30.044   7.603  -3.644  1.00  0.00     0.000 C 
BRANCH   2   3
ATOM      3  C   UNL     1     -29.004   6.554  -4.076  1.00  0.00     0.000 C 
BRANCH   3   4
ATOM      4  C   UNL     1     -29.529   5.112  -3.976  1.00  0.00     0.000 C 
BRANCH   4   5
ATOM      5  C   UNL     1     -28.900   4.325  -2.811  1.00  0.00     0.000 C 
BRANCH   5   6
ATOM      6  C   UNL     1     -27.861   5.100  -1.975  1.00  0.00     0.000 C 
BRANCH   6   7
ATOM      7  C   UNL     1     -28.201   5.257  -0.482  1.00  0.00     0.000 C 
BRANCH   7   8
ATOM      8  C   UNL     1     -27.346   4.352   0.422  1.00  0.00     0.000 C 
BRANCH   8   9
ATOM      9  C   UNL     1     -27.715   2.865   0.288  1.00  0.00     0.000 C 
BRANCH   9  10
ATOM     10  C   UNL     1     -28.969   2.493   1.096  1.00  0.00     0.000 C 
BRANCH  10  11
ATOM     11  C   UNL     1     -30.209   2.270   0.211  1.00  0.00     0.000 C 
BRANCH  11  12
ATOM     12  C   UNL     1     -31.501   1.915   0.970  1.00  0.00     0.000 C 
BRANCH  12  13
ATOM     13  C   UNL     1     -32.625   1.421   0.044  1.00  0.00     0.006 C 
BRANCH  13  14
ATOM     14  C   UNL     1     -34.019   1.750   0.597  1.00  0.00     0.053 C 
BRANCH  14  15
ATOM     15  C   UNL     1     -34.902   0.540   0.632  1.00  0.00     0.041 C 
ATOM     16  O   UNL     1     -34.745  -0.386  -0.205  1.00  0.00    -0.550 OA
ATOM     17  O   UNL     1     -35.919   0.450   1.575  1.00  0.00    -0.550 OA
ENDBRANCH  14  15
ENDBRANCH  13  14
ENDBRANCH  12  13
ENDBRANCH  11  12
ENDBRANCH  10  11
ENDBRANCH   9  10
ENDBRANCH   8   9
ENDBRANCH   7   8
ENDBRANCH   6   7
ENDBRANCH   5   6
ENDBRANCH   4   5
ENDBRANCH   3   4
ENDBRANCH   2   3
ENDBRANCH   1   2
BRANCH   1  18
ATOM     18  C   UNL     1     -30.247   8.201  -1.156  1.00  0.00     0.000 C 
BRANCH  18  19
ATOM     19  C   UNL     1     -31.538   7.381  -1.316  1.00  0.00     0.000 C 
BRANCH  19  20
ATOM     20  C   UNL     1     -31.693   6.313  -0.219  1.00  0.00     0.000 C 
BRANCH  20  21
ATOM     21  C   UNL     1     -32.547   5.118  -0.672  1.00  0.00     0.000 C 
BRANCH  21  22
ATOM     22  C   UNL     1     -32.534   4.926  -2.199  1.00  0.00     0.000 C 
BRANCH  22  23
ATOM     23  C   UNL     1     -33.295   3.666  -2.647  1.00  0.00     0.000 C 
BRANCH  23  24
ATOM     24  C   UNL     1     -34.588   3.924  -3.449  1.00  0.00    -0.000 C 
BRANCH  24  25
ATOM     25  C   UNL     1     -35.881   3.981  -2.616  1.00  0.00    -0.000 C 
BRANCH  25  26
ATOM     26  C   UNL     1     -36.572   5.355  -2.677  1.00  0.00    -0.000 C 
BRANCH  26  27
ATOM     27  C   UNL     1     -36.329   6.206  -1.418  1.00  0.00    -0.000 C 
BRANCH  27  28
ATOM     28  C   UNL     1     -35.294   7.334  -1.582  1.00  0.00    -0.000 C 
BRANCH  28  29
ATOM     29  C   UNL     1     -35.396   8.049  -2.940  1.00  0.00    -0.000 C 
BRANCH  29  30
ATOM     30  C   UNL     1     -34.021   8.382  -3.537  1.00  0.00    -0.000 C 
BRANCH  30  31
ATOM     31  C   UNL     1     -33.617   7.419  -4.663  1.00  0.00    -0.003 C 
ATOM     32  C   UNL     1     -34.827   7.014  -5.500  1.00  0.00     0.004 C 
ENDBRANCH  30  31
ENDBRANCH  29  30
ENDBRANCH  28  29
ENDBRANCH  27  28
ENDBRANCH  26  27
ENDBRANCH  25  26
ENDBRANCH  24  25
ENDBRANCH  23  24
ENDBRANCH  22  23
ENDBRANCH  21  22
ENDBRANCH  20  21
ENDBRANCH  19  20
ENDBRANCH  18  19
ENDBRANCH   1  18
TORSDOF 28
ENDMDL
MODEL 8
REMARK VINA RESULT:    -3.979      2.800      5.179
REMARK INTER + INTRA:         -15.711
REMARK INTER:                  -9.854
REMARK INTRA:                  -5.857
REMARK UNBOUND:                -5.219
REMARK SMILES CCCCCCCCCCCCCCCCCCCCCCCCCCCCCC(=O)[O-]
REMARK SMILES IDX 16 1 17 2 18 3 19 4 20 5 21 6 22 7 23 8 24 9 25 10 26 11
REMARK SMILES IDX 27 12 28 13 29 14 30 15 31 16 32 17 15 18 14 19 13 20 12 21
REMARK SMILES IDX 11 22 10 23 9 24 8 25 7 26 6 27 5 28 4 29 3 30 2 31 1 32
REMARK H PARENT
REMARK Flexibility Score: inf
ROOT
ATOM      1  C   UNL     1     -31.863   6.995  -0.213  1.00  0.00     0.000 C 
ENDROOT
BRANCH   1   2
ATOM      2  C   UNL     1     -30.748   7.776  -0.931  1.00  0.00     0.000 C 
BRANCH   2   3
ATOM      3  C   UNL     1     -29.706   6.913  -1.664  1.00  0.00     0.000 C 
BRANCH   3   4
ATOM      4  C   UNL     1     -28.901   7.705  -2.709  1.00  0.00     0.000 C 
BRANCH   4   5
ATOM      5  C   UNL     1     -29.647   7.859  -4.047  1.00  0.00     0.000 C 
BRANCH   5   6
ATOM      6  C   UNL     1     -29.474   6.690  -5.040  1.00  0.00     0.000 C 
BRANCH   6   7
ATOM      7  C   UNL     1     -29.880   5.305  -4.504  1.00  0.00     0.000 C 
BRANCH   7   8
ATOM      8  C   UNL     1     -28.711   4.304  -4.498  1.00  0.00     0.000 C 
BRANCH   8   9
ATOM      9  C   UNL     1     -28.775   3.329  -3.310  1.00  0.00     0.000 C 
BRANCH   9  10
ATOM     10  C   UNL     1     -28.234   3.947  -2.010  1.00  0.00     0.000 C 
BRANCH  10  11
ATOM     11  C   UNL     1     -28.751   3.234  -0.747  1.00  0.00     0.000 C 
BRANCH  11  12
ATOM     12  C   UNL     1     -27.799   3.271   0.463  1.00  0.00     0.000 C 
BRANCH  12  13
ATOM     13  C   UNL     1     -26.935   4.543   0.509  1.00  0.00     0.006 C 
BRANCH  13  14
ATOM     14  C   UNL     1     -25.486   4.246   0.918  1.00  0.00     0.053 C 
BRANCH  14  15
ATOM     15  C   UNL     1     -25.180   4.755   2.293  1.00  0.00     0.041 C 
ATOM     16  O   UNL     1     -25.916   4.441   3.264  1.00  0.00    -0.550 OA
ATOM     17  O   UNL     1     -24.095   5.600   2.496  1.00  0.00    -0.550 OA
ENDBRANCH  14  15
ENDBRANCH  13  14
ENDBRANCH  12  13
ENDBRANCH  11  12
ENDBRANCH  10  11
ENDBRANCH   9  10
ENDBRANCH   8   9
ENDBRANCH   7   8
ENDBRANCH   6   7
ENDBRANCH   5   6
ENDBRANCH   4   5
ENDBRANCH   3   4
ENDBRANCH   2   3
ENDBRANCH   1   2
BRANCH   1  18
ATOM     18  C   UNL     1     -31.496   5.523   0.044  1.00  0.00     0.000 C 
BRANCH  18  19
ATOM     19  C   UNL     1     -32.579   4.554  -0.455  1.00  0.00     0.000 C 
BRANCH  19  20
ATOM     20  C   UNL     1     -32.253   3.972  -1.842  1.00  0.00     0.000 C 
BRANCH  20  21
ATOM     21  C   UNL     1     -33.503   3.783  -2.716  1.00  0.00     0.000 C 
BRANCH  21  22
ATOM     22  C   UNL     1     -34.807   3.818  -1.899  1.00  0.00     0.000 C 
BRANCH  22  23
ATOM     23  C   UNL     1     -35.962   4.504  -2.650  1.00  0.00     0.000 C 
BRANCH  23  24
ATOM     24  C   UNL     1     -36.463   5.825  -2.028  1.00  0.00    -0.000 C 
BRANCH  24  25
ATOM     25  C   UNL     1     -35.361   6.799  -1.573  1.00  0.00    -0.000 C 
BRANCH  25  26
ATOM     26  C   UNL     1     -35.301   8.076  -2.430  1.00  0.00    -0.000 C 
BRANCH  26  27
ATOM     27  C   UNL     1     -33.895   8.353  -2.994  1.00  0.00    -0.000 C 
BRANCH  27  28
ATOM     28  C   UNL     1     -33.194   7.139  -3.629  1.00  0.00    -0.000 C 
BRANCH  28  29
ATOM     29  C   UNL     1     -33.332   7.100  -5.161  1.00  0.00    -0.000 C 
BRANCH  29  30
ATOM     30  C   UNL     1     -34.089   5.858  -5.654  1.00  0.00    -0.000 C 
BRANCH  30  31
ATOM     31  C   UNL     1     -35.591   6.116  -5.840  1.00  0.00    -0.003 C 
ATOM     32  C   UNL     1     -35.863   7.590  -6.129  1.00  0.00     0.004 C 
ENDBRANCH  30  31
ENDBRANCH  29  30
ENDBRANCH  28  29
ENDBRANCH  27  28
ENDBRANCH  26  27
ENDBRANCH  25  26
ENDBRANCH  24  25
ENDBRANCH  23  24
ENDBRANCH  22  23
ENDBRANCH  21  22
ENDBRANCH  20  21
ENDBRANCH  19  20
ENDBRANCH  18  19
ENDBRANCH   1  18
TORSDOF 28
ENDMDL
MODEL 9
REMARK VINA RESULT:    -3.949      2.185      5.364
REMARK INTER + INTRA:         -15.631
REMARK INTER:                  -9.800
REMARK INTRA:                  -5.831
REMARK UNBOUND:                -5.219
REMARK SMILES CCCCCCCCCCCCCCCCCCCCCCCCCCCCCC(=O)[O-]
REMARK SMILES IDX 16 1 17 2 18 3 19 4 20 5 21 6 22 7 23 8 24 9 25 10 26 11
REMARK SMILES IDX 27 12 28 13 29 14 30 15 31 16 32 17 15 18 14 19 13 20 12 21
REMARK SMILES IDX 11 22 10 23 9 24 8 25 7 26 6 27 5 28 4 29 3 30 2 31 1 32
REMARK H PARENT
REMARK Flexibility Score: inf
ROOT
ATOM      1  C   UNL     1     -34.680   6.688  -1.196  1.00  0.00     0.000 C 
ENDROOT
BRANCH   1   2
ATOM      2  C   UNL     1     -33.920   7.673  -2.103  1.00  0.00     0.000 C 
BRANCH   2   3
ATOM      3  C   UNL     1     -32.421   7.378  -2.286  1.00  0.00     0.000 C 
BRANCH   3   4
ATOM      4  C   UNL     1     -31.738   6.916  -0.987  1.00  0.00     0.000 C 
BRANCH   4   5
ATOM      5  C   UNL     1     -30.210   7.103  -1.015  1.00  0.00     0.000 C 
BRANCH   5   6
ATOM      6  C   UNL     1     -29.656   7.837  -2.254  1.00  0.00     0.000 C 
BRANCH   6   7
ATOM      7  C   UNL     1     -28.146   7.672  -2.498  1.00  0.00     0.000 C 
BRANCH   7   8
ATOM      8  C   UNL     1     -27.818   6.497  -3.436  1.00  0.00     0.000 C 
BRANCH   8   9
ATOM      9  C   UNL     1     -29.044   6.019  -4.232  1.00  0.00     0.000 C 
BRANCH   9  10
ATOM     10  C   UNL     1     -29.361   4.533  -3.993  1.00  0.00     0.000 C 
BRANCH  10  11
ATOM     11  C   UNL     1     -28.547   3.926  -2.835  1.00  0.00     0.000 C 
BRANCH  11  12
ATOM     12  C   UNL     1     -29.383   3.342  -1.682  1.00  0.00     0.000 C 
BRANCH  12  13
ATOM     13  C   UNL     1     -28.885   3.784  -0.295  1.00  0.00     0.006 C 
BRANCH  13  14
ATOM     14  C   UNL     1     -27.510   4.463  -0.363  1.00  0.00     0.053 C 
BRANCH  14  15
ATOM     15  C   UNL     1     -26.700   4.203   0.870  1.00  0.00     0.041 C 
ATOM     16  O   UNL     1     -26.287   5.162   1.573  1.00  0.00    -0.550 OA
ATOM     17  O   UNL     1     -26.378   2.899   1.229  1.00  0.00    -0.550 OA
ENDBRANCH  14  15
ENDBRANCH  13  14
ENDBRANCH  12  13
ENDBRANCH  11  12
ENDBRANCH  10  11
ENDBRANCH   9  10
ENDBRANCH   8   9
ENDBRANCH   7   8
ENDBRANCH   6   7
ENDBRANCH   5   6
ENDBRANCH   4   5
ENDBRANCH   3   4
ENDBRANCH   2   3
ENDBRANCH   1   2
BRANCH   1  18
ATOM     18  C   UNL     1     -36.176   6.588  -1.538  1.00  0.00     0.000 C 
BRANCH  18  19
ATOM     19  C   UNL     1     -36.479   5.430  -2.504  1.00  0.00     0.000 C 
BRANCH  19  20
ATOM     20  C   UNL     1     -36.771   5.919  -3.933  1.00  0.00     0.000 C 
BRANCH  20  21
ATOM     21  C   UNL     1     -35.558   5.779  -4.867  1.00  0.00     0.000 C 
BRANCH  21  22
ATOM     22  C   UNL     1     -35.477   4.393  -5.529  1.00  0.00     0.000 C 
BRANCH  22  23
ATOM     23  C   UNL     1     -34.159   3.662  -5.220  1.00  0.00     0.000 C 
BRANCH  23  24
ATOM     24  C   UNL     1     -33.139   4.463  -4.383  1.00  0.00    -0.000 C 
BRANCH  24  25
ATOM     25  C   UNL     1     -32.936   3.966  -2.940  1.00  0.00    -0.000 C 
BRANCH  25  26
ATOM     26  C   UNL     1     -34.022   2.972  -2.491  1.00  0.00    -0.000 C 
BRANCH  26  27
ATOM     27  C   UNL     1     -34.043   2.754  -0.967  1.00  0.00    -0.000 C 
BRANCH  27  28
ATOM     28  C   UNL     1     -32.658   2.703  -0.296  1.00  0.00    -0.000 C 
BRANCH  28  29
ATOM     29  C   UNL     1     -32.495   3.746   0.823  1.00  0.00    -0.000 C 
BRANCH  29  30
ATOM     30  C   UNL     1     -32.755   3.160   2.219  1.00  0.00    -0.000 C 
BRANCH  30  31
ATOM     31  C   UNL     1     -32.128   1.771   2.403  1.00  0.00    -0.003 C 
ATOM     32  C   UNL     1     -30.604   1.852   2.409  1.00  0.00     0.004 C 
ENDBRANCH  30  31
ENDBRANCH  29  30
ENDBRANCH  28  29
ENDBRANCH  27  28
ENDBRANCH  26  27
ENDBRANCH  25  26
ENDBRANCH  24  25
ENDBRANCH  23  24
ENDBRANCH  22  23
ENDBRANCH  21  22
ENDBRANCH  20  21
ENDBRANCH  19  20
ENDBRANCH  18  19
ENDBRANCH   1  18
TORSDOF 28
ENDMDL
