MODEL 1
REMARK VINA RESULT:    -7.405      0.000      0.000
REMARK INTER + INTRA:          -8.991
REMARK INTER:                  -8.703
REMARK INTRA:                  -0.288
REMARK UNBOUND:                -0.288
REMARK SMILES O=c1cc(-c2ccc(O)c(O)c2)oc2cc(O)cc(O)c12
REMARK SMILES IDX 4 1 3 2 2 3 1 4 21 5 19 6 18 7 16 8 15 9 14 10 13 11 5 12
REMARK SMILES IDX 6 13 7 14 8 15 12 16 10 17 9 18 11 20 20 22 17 24
REMARK H PARENT 9 19 11 21 20 23 17 25
REMARK Flexibility Score: inf
ROOT
ATOM      1  C   UNL     1      45.506   7.910  19.150  1.00  0.00     0.138 A 
ATOM      2  C   UNL     1      44.628   8.620  18.321  1.00  0.00     0.100 A 
ATOM      3  C   UNL     1      44.632   8.381  16.946  1.00  0.00     0.197 A 
ATOM      4  O   UNL     1      43.878   9.077  16.220  1.00  0.00    -0.289 OA
ATOM      5  C   UNL     1      45.502   7.404  16.405  1.00  0.00     0.107 A 
ATOM      6  C   UNL     1      45.565   7.047  15.024  1.00  0.00     0.134 A 
ATOM      7  C   UNL     1      46.546   6.150  14.587  1.00  0.00     0.093 A 
ATOM      8  C   UNL     1      47.427   5.548  15.491  1.00  0.00     0.123 A 
ATOM      9  C   UNL     1      47.338   5.849  16.847  1.00  0.00     0.094 A 
ATOM     10  C   UNL     1      46.392   6.767  17.309  1.00  0.00     0.146 A 
ATOM     11  O   UNL     1      46.351   7.037  18.610  1.00  0.00    -0.456 OA
ENDROOT
BRANCH   1  12
ATOM     12  C   UNL     1      45.542   8.122  20.620  1.00  0.00     0.021 A 
ATOM     13  C   UNL     1      46.706   7.876  21.374  1.00  0.00     0.016 A 
ATOM     14  C   UNL     1      46.714   8.094  22.755  1.00  0.00     0.051 A 
ATOM     15  C   UNL     1      45.566   8.567  23.402  1.00  0.00     0.157 A 
ATOM     16  C   UNL     1      44.399   8.611  21.277  1.00  0.00     0.062 A 
ATOM     17  C   UNL     1      44.408   8.828  22.663  1.00  0.00     0.158 A 
BRANCH  15  18
ATOM     18  O   UNL     1      45.572   8.785  24.779  1.00  0.00    -0.504 OA
ATOM     19  H   UNL     1      44.787   9.222  25.249  1.00  0.00     0.293 HD
ENDBRANCH  15  18
BRANCH  17  20
ATOM     20  O   UNL     1      43.268   9.304  23.309  1.00  0.00    -0.504 OA
ATOM     21  H   UNL     1      43.015  10.284  23.286  1.00  0.00     0.293 HD
ENDBRANCH  17  20
ENDBRANCH   1  12
BRANCH   6  22
ATOM     22  O   UNL     1      44.678   7.524  14.053  1.00  0.00    -0.507 OA
ATOM     23  H   UNL     1      43.759   7.891  14.242  1.00  0.00     0.293 HD
ENDBRANCH   6  22
BRANCH   8  24
ATOM     24  O   UNL     1      48.389   4.644  15.048  1.00  0.00    -0.508 OA
ATOM     25  H   UNL     1      48.175   3.662  14.921  1.00  0.00     0.293 HD
ENDBRANCH   8  24
TORSDOF 5
ENDMDL
MODEL 2
REMARK VINA RESULT:    -6.919      1.486      2.035
REMARK INTER + INTRA:          -8.421
REMARK INTER:                  -8.155
REMARK INTRA:                  -0.265
REMARK UNBOUND:                -0.288
REMARK SMILES O=c1cc(-c2ccc(O)c(O)c2)oc2cc(O)cc(O)c12
REMARK SMILES IDX 4 1 3 2 2 3 1 4 21 5 19 6 18 7 16 8 15 9 14 10 13 11 5 12
REMARK SMILES IDX 6 13 7 14 8 15 12 16 10 17 9 18 11 20 20 22 17 24
REMARK H PARENT 9 19 11 21 20 23 17 25
REMARK Flexibility Score: inf
ROOT
ATOM      1  C   UNL     1      45.050   9.022  20.737  1.00  0.00     0.138 A 
ATOM      2  C   UNL     1      44.116   9.629  19.887  1.00  0.00     0.100 A 
ATOM      3  C   UNL     1      44.067   9.260  18.542  1.00  0.00     0.197 A 
ATOM      4  O   UNL     1      43.261   9.866  17.789  1.00  0.00    -0.289 OA
ATOM      5  C   UNL     1      44.938   8.257  18.055  1.00  0.00     0.107 A 
ATOM      6  C   UNL     1      44.950   7.772  16.712  1.00  0.00     0.134 A 
ATOM      7  C   UNL     1      45.936   6.860  16.316  1.00  0.00     0.093 A 
ATOM      8  C   UNL     1      46.872   6.369  17.230  1.00  0.00     0.123 A 
ATOM      9  C   UNL     1      46.835   6.795  18.555  1.00  0.00     0.094 A 
ATOM     10  C   UNL     1      45.885   7.730  18.972  1.00  0.00     0.146 A 
ATOM     11  O   UNL     1      45.894   8.122  20.243  1.00  0.00    -0.456 OA
ENDROOT
BRANCH   1  12
ATOM     12  C   UNL     1      45.145   9.374  22.177  1.00  0.00     0.021 A 
ATOM     13  C   UNL     1      46.320   9.924  22.727  1.00  0.00     0.016 A 
ATOM     14  C   UNL     1      46.378  10.256  24.084  1.00  0.00     0.051 A 
ATOM     15  C   UNL     1      45.266  10.051  24.910  1.00  0.00     0.157 A 
ATOM     16  C   UNL     1      44.029   9.186  23.011  1.00  0.00     0.062 A 
ATOM     17  C   UNL     1      44.089   9.518  24.373  1.00  0.00     0.158 A 
BRANCH  15  18
ATOM     18  O   UNL     1      45.321  10.380  26.263  1.00  0.00    -0.504 OA
ATOM     19  H   UNL     1      46.184  10.684  26.699  1.00  0.00     0.293 HD
ENDBRANCH  15  18
BRANCH  17  20
ATOM     20  O   UNL     1      42.982   9.320  25.195  1.00  0.00    -0.504 OA
ATOM     21  H   UNL     1      42.047   9.572  24.898  1.00  0.00     0.293 HD
ENDBRANCH  17  20
ENDBRANCH   1  12
BRANCH   6  22
ATOM     22  O   UNL     1      44.008   8.133  15.743  1.00  0.00    -0.507 OA
ATOM     23  H   UNL     1      43.154   8.637  15.928  1.00  0.00     0.293 HD
ENDBRANCH   6  22
BRANCH   8  24
ATOM     24  O   UNL     1      47.839   5.449  16.830  1.00  0.00    -0.508 OA
ATOM     25  H   UNL     1      48.541   5.105  17.474  1.00  0.00     0.293 HD
ENDBRANCH   8  24
TORSDOF 5
ENDMDL
MODEL 3
REMARK VINA RESULT:    -6.570      1.658      3.115
REMARK INTER + INTRA:          -8.010
REMARK INTER:                  -7.739
REMARK INTRA:                  -0.271
REMARK UNBOUND:                -0.288
REMARK SMILES O=c1cc(-c2ccc(O)c(O)c2)oc2cc(O)cc(O)c12
REMARK SMILES IDX 4 1 3 2 2 3 1 4 21 5 19 6 18 7 16 8 15 9 14 10 13 11 5 12
REMARK SMILES IDX 6 13 7 14 8 15 12 16 10 17 9 18 11 20 20 22 17 24
REMARK H PARENT 9 19 11 21 20 23 17 25
REMARK Flexibility Score: inf
ROOT
ATOM      1  C   UNL     1      46.004   7.676  18.400  1.00  0.00     0.138 A 
ATOM      2  C   UNL     1      47.102   6.917  17.972  1.00  0.00     0.100 A 
ATOM      3  C   UNL     1      47.041   6.243  16.751  1.00  0.00     0.197 A 
ATOM      4  O   UNL     1      48.016   5.520  16.422  1.00  0.00    -0.289 OA
ATOM      5  C   UNL     1      45.884   6.356  15.942  1.00  0.00     0.107 A 
ATOM      6  C   UNL     1      45.725   5.747  14.662  1.00  0.00     0.134 A 
ATOM      7  C   UNL     1      44.492   5.832  14.004  1.00  0.00     0.093 A 
ATOM      8  C   UNL     1      43.431   6.557  14.554  1.00  0.00     0.123 A 
ATOM      9  C   UNL     1      43.594   7.200  15.778  1.00  0.00     0.094 A 
ATOM     10  C   UNL     1      44.801   7.105  16.474  1.00  0.00     0.146 A 
ATOM     11  O   UNL     1      44.910   7.722  17.647  1.00  0.00    -0.456 OA
ENDROOT
BRANCH   1  12
ATOM     12  C   UNL     1      46.016   8.415  19.688  1.00  0.00     0.021 A 
ATOM     13  C   UNL     1      45.645   9.772  19.765  1.00  0.00     0.016 A 
ATOM     14  C   UNL     1      45.655  10.440  20.993  1.00  0.00     0.051 A 
ATOM     15  C   UNL     1      46.029   9.765  22.161  1.00  0.00     0.157 A 
ATOM     16  C   UNL     1      46.376   7.742  20.869  1.00  0.00     0.062 A 
ATOM     17  C   UNL     1      46.388   8.414  22.100  1.00  0.00     0.158 A 
BRANCH  15  18
ATOM     18  O   UNL     1      46.042  10.429  23.387  1.00  0.00    -0.504 OA
ATOM     19  H   UNL     1      45.319  11.095  23.636  1.00  0.00     0.293 HD
ENDBRANCH  15  18
BRANCH  17  20
ATOM     20  O   UNL     1      46.755   7.743  23.265  1.00  0.00    -0.504 OA
ATOM     21  H   UNL     1      46.179   7.010  23.661  1.00  0.00     0.293 HD
ENDBRANCH  17  20
ENDBRANCH   1  12
BRANCH   6  22
ATOM     22  O   UNL     1      46.748   5.072  13.986  1.00  0.00    -0.507 OA
ATOM     23  H   UNL     1      47.269   5.445  13.208  1.00  0.00     0.293 HD
ENDBRANCH   6  22
BRANCH   8  24
ATOM     24  O   UNL     1      42.213   6.650  13.885  1.00  0.00    -0.508 OA
ATOM     25  H   UNL     1      42.165   6.685  12.874  1.00  0.00     0.293 HD
ENDBRANCH   8  24
TORSDOF 5
ENDMDL
MODEL 4
REMARK VINA RESULT:    -6.546      1.433      7.477
REMARK INTER + INTRA:          -7.982
REMARK INTER:                  -7.688
REMARK INTRA:                  -0.294
REMARK UNBOUND:                -0.288
REMARK SMILES O=c1cc(-c2ccc(O)c(O)c2)oc2cc(O)cc(O)c12
REMARK SMILES IDX 4 1 3 2 2 3 1 4 21 5 19 6 18 7 16 8 15 9 14 10 13 11 5 12
REMARK SMILES IDX 6 13 7 14 8 15 12 16 10 17 9 18 11 20 20 22 17 24
REMARK H PARENT 9 19 11 21 20 23 17 25
REMARK Flexibility Score: inf
ROOT
ATOM      1  C   UNL     1      46.026   7.781  19.397  1.00  0.00     0.138 A 
ATOM      2  C   UNL     1      46.926   7.313  20.363  1.00  0.00     0.100 A 
ATOM      3  C   UNL     1      46.752   7.673  21.700  1.00  0.00     0.197 A 
ATOM      4  O   UNL     1      47.610   7.289  22.535  1.00  0.00    -0.289 OA
ATOM      5  C   UNL     1      45.652   8.482  22.073  1.00  0.00     0.107 A 
ATOM      6  C   UNL     1      45.351   8.878  23.411  1.00  0.00     0.134 A 
ATOM      7  C   UNL     1      44.303   9.777  23.646  1.00  0.00     0.093 A 
ATOM      8  C   UNL     1      43.506  10.244  22.597  1.00  0.00     0.123 A 
ATOM      9  C   UNL     1      43.758   9.820  21.295  1.00  0.00     0.094 A 
ATOM     10  C   UNL     1      44.818   8.952  21.025  1.00  0.00     0.146 A 
ATOM     11  O   UNL     1      45.033   8.584  19.765  1.00  0.00    -0.456 OA
ENDROOT
BRANCH   1  12
ATOM     12  C   UNL     1      46.162   7.427  17.961  1.00  0.00     0.021 A 
ATOM     13  C   UNL     1      45.378   8.048  16.969  1.00  0.00     0.016 A 
ATOM     14  C   UNL     1      45.534   7.703  15.623  1.00  0.00     0.051 A 
ATOM     15  C   UNL     1      46.479   6.741  15.246  1.00  0.00     0.157 A 
ATOM     16  C   UNL     1      47.118   6.473  17.570  1.00  0.00     0.062 A 
ATOM     17  C   UNL     1      47.273   6.127  16.220  1.00  0.00     0.158 A 
BRANCH  15  18
ATOM     18  O   UNL     1      46.637   6.394  13.905  1.00  0.00    -0.504 OA
ATOM     19  H   UNL     1      45.840   6.183  13.316  1.00  0.00     0.293 HD
ENDBRANCH  15  18
BRANCH  17  20
ATOM     20  O   UNL     1      48.216   5.173  15.841  1.00  0.00    -0.504 OA
ATOM     21  H   UNL     1      48.831   5.318  15.049  1.00  0.00     0.293 HD
ENDBRANCH  17  20
ENDBRANCH   1  12
BRANCH   6  22
ATOM     22  O   UNL     1      46.031   8.403  24.538  1.00  0.00    -0.507 OA
ATOM     23  H   UNL     1      46.508   7.517  24.593  1.00  0.00     0.293 HD
ENDBRANCH   6  22
BRANCH   8  24
ATOM     24  O   UNL     1      42.455  11.125  22.843  1.00  0.00    -0.508 OA
ATOM     25  H   UNL     1      42.180  11.825  22.164  1.00  0.00     0.293 HD
ENDBRANCH   8  24
TORSDOF 5
ENDMDL
MODEL 5
REMARK VINA RESULT:    -6.413      1.926      7.851
REMARK INTER + INTRA:          -7.825
REMARK INTER:                  -7.537
REMARK INTRA:                  -0.288
REMARK UNBOUND:                -0.288
REMARK SMILES O=c1cc(-c2ccc(O)c(O)c2)oc2cc(O)cc(O)c12
REMARK SMILES IDX 4 1 3 2 2 3 1 4 21 5 19 6 18 7 16 8 15 9 14 10 13 11 5 12
REMARK SMILES IDX 6 13 7 14 8 15 12 16 10 17 9 18 11 20 20 22 17 24
REMARK H PARENT 9 19 11 21 20 23 17 25
REMARK Flexibility Score: inf
ROOT
ATOM      1  C   UNL     1      45.410   8.781  21.304  1.00  0.00     0.138 A 
ATOM      2  C   UNL     1      46.469   9.453  21.930  1.00  0.00     0.100 A 
ATOM      3  C   UNL     1      46.295   9.969  23.215  1.00  0.00     0.197 A 
ATOM      4  O   UNL     1      47.241  10.621  23.726  1.00  0.00    -0.289 OA
ATOM      5  C   UNL     1      45.063   9.783  23.886  1.00  0.00     0.107 A 
ATOM      6  C   UNL     1      44.785  10.231  25.213  1.00  0.00     0.134 A 
ATOM      7  C   UNL     1      43.492  10.094  25.731  1.00  0.00     0.093 A 
ATOM      8  C   UNL     1      42.482   9.470  24.993  1.00  0.00     0.123 A 
ATOM      9  C   UNL     1      42.758   8.982  23.719  1.00  0.00     0.094 A 
ATOM     10  C   UNL     1      44.029   9.135  23.161  1.00  0.00     0.146 A 
ATOM     11  O   UNL     1      44.246   8.668  21.935  1.00  0.00    -0.456 OA
ENDROOT
BRANCH   1  12
ATOM     12  C   UNL     1      45.541   8.210  19.939  1.00  0.00     0.021 A 
ATOM     13  C   UNL     1      46.606   7.355  19.595  1.00  0.00     0.016 A 
ATOM     14  C   UNL     1      46.700   6.824  18.305  1.00  0.00     0.051 A 
ATOM     15  C   UNL     1      45.730   7.131  17.343  1.00  0.00     0.157 A 
ATOM     16  C   UNL     1      44.564   8.500  18.970  1.00  0.00     0.062 A 
ATOM     17  C   UNL     1      44.659   7.968  17.676  1.00  0.00     0.158 A 
BRANCH  15  18
ATOM     18  O   UNL     1      45.820   6.603  16.056  1.00  0.00    -0.504 OA
ATOM     19  H   UNL     1      45.232   5.833  15.757  1.00  0.00     0.293 HD
ENDBRANCH  15  18
BRANCH  17  20
ATOM     20  O   UNL     1      43.693   8.268  16.718  1.00  0.00    -0.504 OA
ATOM     21  H   UNL     1      42.724   8.424  16.971  1.00  0.00     0.293 HD
ENDBRANCH  17  20
ENDBRANCH   1  12
BRANCH   6  22
ATOM     22  O   UNL     1      45.743  10.789  26.065  1.00  0.00    -0.507 OA
ATOM     23  H   UNL     1      46.688  10.455  26.169  1.00  0.00     0.293 HD
ENDBRANCH   6  22
BRANCH   8  24
ATOM     24  O   UNL     1      41.203   9.324  25.524  1.00  0.00    -0.508 OA
ATOM     25  H   UNL     1      40.410   9.829  25.145  1.00  0.00     0.293 HD
ENDBRANCH   8  24
TORSDOF 5
ENDMDL
MODEL 6
REMARK VINA RESULT:    -5.296      6.424      9.431
REMARK INTER + INTRA:          -6.513
REMARK INTER:                  -6.196
REMARK INTRA:                  -0.317
REMARK UNBOUND:                -0.288
REMARK SMILES O=c1cc(-c2ccc(O)c(O)c2)oc2cc(O)cc(O)c12
REMARK SMILES IDX 4 1 3 2 2 3 1 4 21 5 19 6 18 7 16 8 15 9 14 10 13 11 5 12
REMARK SMILES IDX 6 13 7 14 8 15 12 16 10 17 9 18 11 20 20 22 17 24
REMARK H PARENT 9 19 11 21 20 23 17 25
REMARK Flexibility Score: inf
ROOT
ATOM      1  C   UNL     1      45.582   1.186  14.377  1.00  0.00     0.138 A 
ATOM      2  C   UNL     1      44.322   0.657  14.066  1.00  0.00     0.100 A 
ATOM      3  C   UNL     1      44.090  -0.711  14.220  1.00  0.00     0.197 A 
ATOM      4  O   UNL     1      42.969  -1.166  13.875  1.00  0.00    -0.289 OA
ATOM      5  C   UNL     1      45.118  -1.546  14.717  1.00  0.00     0.107 A 
ATOM      6  C   UNL     1      44.984  -2.948  14.953  1.00  0.00     0.134 A 
ATOM      7  C   UNL     1      46.105  -3.694  15.335  1.00  0.00     0.093 A 
ATOM      8  C   UNL     1      47.342  -3.079  15.550  1.00  0.00     0.123 A 
ATOM      9  C   UNL     1      47.469  -1.704  15.374  1.00  0.00     0.094 A 
ATOM     10  C   UNL     1      46.378  -0.937  14.960  1.00  0.00     0.146 A 
ATOM     11  O   UNL     1      46.547   0.370  14.789  1.00  0.00    -0.456 OA
ENDROOT
BRANCH   1  12
ATOM     12  C   UNL     1      45.882   2.633  14.233  1.00  0.00     0.021 A 
ATOM     13  C   UNL     1      44.866   3.579  13.996  1.00  0.00     0.016 A 
ATOM     14  C   UNL     1      45.176   4.937  13.875  1.00  0.00     0.051 A 
ATOM     15  C   UNL     1      46.501   5.372  13.996  1.00  0.00     0.157 A 
ATOM     16  C   UNL     1      47.208   3.082  14.368  1.00  0.00     0.062 A 
ATOM     17  C   UNL     1      47.518   4.444  14.245  1.00  0.00     0.158 A 
BRANCH  15  18
ATOM     18  O   UNL     1      46.814   6.725  13.875  1.00  0.00    -0.504 OA
ATOM     19  H   UNL     1      47.774   7.049  13.886  1.00  0.00     0.293 HD
ENDBRANCH  15  18
BRANCH  17  20
ATOM     20  O   UNL     1      48.836   4.881  14.369  1.00  0.00    -0.504 OA
ATOM     21  H   UNL     1      49.091   5.850  14.222  1.00  0.00     0.293 HD
ENDBRANCH  17  20
ENDBRANCH   1  12
BRANCH   6  22
ATOM     22  O   UNL     1      43.775  -3.644  14.851  1.00  0.00    -0.507 OA
ATOM     23  H   UNL     1      43.599  -4.554  15.246  1.00  0.00     0.293 HD
ENDBRANCH   6  22
BRANCH   8  24
ATOM     24  O   UNL     1      48.448  -3.827  15.946  1.00  0.00    -0.508 OA
ATOM     25  H   UNL     1      48.909  -4.468  15.311  1.00  0.00     0.293 HD
ENDBRANCH   8  24
TORSDOF 5
ENDMDL
