MODEL 1
REMARK VINA RESULT:    -6.274      0.000      0.000
REMARK INTER + INTRA:         -10.490
REMARK INTER:                  -9.208
REMARK INTRA:                  -1.282
REMARK UNBOUND:                -1.282
REMARK SMILES O=c1c(O[C@@H]2O[C@@H](CO)[C@H](O)[C@@H](O)[C@H]2O)c(-c2ccc(O)c(O)c2)oc2cc(O)cc(O)c12
REMARK SMILES IDX 4 1 3 2 16 3 25 4 2 5 26 6 1 7 33 8 27 9 31 10 28 11 30 12
REMARK SMILES IDX 17 13 18 14 19 15 20 16 24 17 22 18 21 19 23 21 32 23 29 25
REMARK SMILES IDX 5 27 14 28 6 29 12 30 7 31 10 32 15 33 13 35 8 37 9 38 11 40
REMARK H PARENT 21 20 23 22 32 24 29 26 15 34 13 36 9 39 11 41
REMARK Flexibility Score: inf
ROOT
ATOM      1  O   UNL     1      17.349  -3.052 -13.883  1.00  0.00    -0.454 OA
ENDROOT
BRANCH   1   2
ATOM      2  C   UNL     1      17.864  -2.973 -15.182  1.00  0.00     0.214 A 
ATOM      3  C   UNL     1      17.898  -4.095 -16.038  1.00  0.00     0.180 A 
ATOM      4  O   UNL     1      18.468  -3.992 -17.236  1.00  0.00    -0.452 OA
ATOM      5  C   UNL     1      18.364  -1.752 -15.647  1.00  0.00     0.239 A 
ATOM      6  C   UNL     1      18.984  -2.861 -17.704  1.00  0.00     0.146 A 
ATOM      7  O   UNL     1      18.301  -0.737 -14.899  1.00  0.00    -0.285 OA
ATOM      8  C   UNL     1      18.945  -1.677 -16.929  1.00  0.00     0.111 A 
ATOM      9  C   UNL     1      19.562  -2.851 -18.977  1.00  0.00     0.094 A 
ATOM     10  C   UNL     1      19.494  -0.485 -17.462  1.00  0.00     0.134 A 
ATOM     11  C   UNL     1      20.103  -1.674 -19.498  1.00  0.00     0.123 A 
ATOM     12  C   UNL     1      20.067  -0.496 -18.742  1.00  0.00     0.093 A 
BRANCH   3  13
ATOM     13  C   UNL     1      17.312  -5.401 -15.657  1.00  0.00     0.025 A 
ATOM     14  C   UNL     1      17.939  -6.181 -14.674  1.00  0.00     0.016 A 
ATOM     15  C   UNL     1      17.400  -7.416 -14.302  1.00  0.00     0.051 A 
ATOM     16  C   UNL     1      16.236  -7.895 -14.920  1.00  0.00     0.157 A 
ATOM     17  C   UNL     1      16.157  -5.895 -16.293  1.00  0.00     0.062 A 
ATOM     18  C   UNL     1      15.615  -7.131 -15.923  1.00  0.00     0.158 A 
BRANCH  16  19
ATOM     19  O   UNL     1      15.698  -9.124 -14.542  1.00  0.00    -0.504 OA
ATOM     20  H   UNL     1      16.121  -9.688 -13.814  1.00  0.00     0.293 HD
ENDBRANCH  16  19
BRANCH  18  21
ATOM     21  O   UNL     1      14.465  -7.586 -16.565  1.00  0.00    -0.504 OA
ATOM     22  H   UNL     1      14.486  -8.347 -17.235  1.00  0.00     0.293 HD
ENDBRANCH  18  21
ENDBRANCH   3  13
BRANCH  10  23
ATOM     23  O   UNL     1      19.476   0.704 -16.731  1.00  0.00    -0.507 OA
ATOM     24  H   UNL     1      20.305   1.275 -16.620  1.00  0.00     0.293 HD
ENDBRANCH  10  23
BRANCH  11  25
ATOM     25  O   UNL     1      20.673  -1.685 -20.769  1.00  0.00    -0.508 OA
ATOM     26  H   UNL     1      21.432  -2.315 -21.004  1.00  0.00     0.293 HD
ENDBRANCH  11  25
ENDBRANCH   1   2
BRANCH   1  27
ATOM     27  C   UNL     1      16.055  -2.548 -13.530  1.00  0.00     0.339 C 
ATOM     28  C   UNL     1      15.093  -3.701 -13.167  1.00  0.00     0.214 C 
ATOM     29  O   UNL     1      16.156  -1.606 -12.473  1.00  0.00    -0.332 OA
ATOM     30  C   UNL     1      15.504  -4.353 -11.831  1.00  0.00     0.180 C 
ATOM     31  C   UNL     1      16.698  -2.189 -11.297  1.00  0.00     0.179 C 
ATOM     32  C   UNL     1      15.756  -3.289 -10.747  1.00  0.00     0.177 C 
BRANCH  28  33
ATOM     33  O   UNL     1      13.758  -3.255 -13.131  1.00  0.00    -0.384 OA
ATOM     34  H   UNL     1      13.381  -3.330 -14.047  1.00  0.00     0.211 HD
ENDBRANCH  28  33
BRANCH  30  35
ATOM     35  O   UNL     1      14.508  -5.243 -11.396  1.00  0.00    -0.387 OA
ATOM     36  H   UNL     1      14.538  -5.242 -10.403  1.00  0.00     0.211 HD
ENDBRANCH  30  35
BRANCH  31  37
ATOM     37  C   UNL     1      16.899  -1.060 -10.270  1.00  0.00     0.191 C 
BRANCH  37  38
ATOM     38  O   UNL     1      15.760  -0.888  -9.469  1.00  0.00    -0.394 OA
ATOM     39  H   UNL     1      15.811   0.031  -9.095  1.00  0.00     0.210 HD
ENDBRANCH  37  38
ENDBRANCH  31  37
BRANCH  32  40
ATOM     40  O   UNL     1      16.344  -3.900  -9.625  1.00  0.00    -0.387 OA
ATOM     41  H   UNL     1      16.537  -4.841  -9.876  1.00  0.00     0.211 HD
ENDBRANCH  32  40
ENDBRANCH   1  27
TORSDOF 12
ENDMDL
MODEL 2
REMARK VINA RESULT:    -6.217      2.428      6.692
REMARK INTER + INTRA:         -10.407
REMARK INTER:                 -10.020
REMARK INTRA:                  -0.387
REMARK UNBOUND:                -1.282
REMARK SMILES O=c1c(O[C@@H]2O[C@@H](CO)[C@H](O)[C@@H](O)[C@H]2O)c(-c2ccc(O)c(O)c2)oc2cc(O)cc(O)c12
REMARK SMILES IDX 4 1 3 2 16 3 25 4 2 5 26 6 1 7 33 8 27 9 31 10 28 11 30 12
REMARK SMILES IDX 17 13 18 14 19 15 20 16 24 17 22 18 21 19 23 21 32 23 29 25
REMARK SMILES IDX 5 27 14 28 6 29 12 30 7 31 10 32 15 33 13 35 8 37 9 38 11 40
REMARK H PARENT 21 20 23 22 32 24 29 26 15 34 13 36 9 39 11 41
REMARK Flexibility Score: inf
ROOT
ATOM      1  O   UNL     1      18.022  -3.586 -15.297  1.00  0.00    -0.454 OA
ENDROOT
BRANCH   1   2
ATOM      2  C   UNL     1      17.420  -2.339 -15.093  1.00  0.00     0.214 A 
ATOM      3  C   UNL     1      17.772  -1.208 -15.863  1.00  0.00     0.180 A 
ATOM      4  O   UNL     1      17.230  -0.026 -15.581  1.00  0.00    -0.452 OA
ATOM      5  C   UNL     1      16.448  -2.203 -14.096  1.00  0.00     0.239 A 
ATOM      6  C   UNL     1      16.328   0.154 -14.623  1.00  0.00     0.146 A 
ATOM      7  O   UNL     1      16.104  -3.218 -13.431  1.00  0.00    -0.285 OA
ATOM      8  C   UNL     1      15.884  -0.937 -13.838  1.00  0.00     0.111 A 
ATOM      9  C   UNL     1      15.816   1.436 -14.402  1.00  0.00     0.094 A 
ATOM     10  C   UNL     1      14.913  -0.713 -12.832  1.00  0.00     0.134 A 
ATOM     11  C   UNL     1      14.859   1.653 -13.409  1.00  0.00     0.123 A 
ATOM     12  C   UNL     1      14.410   0.581 -12.628  1.00  0.00     0.093 A 
BRANCH   3  13
ATOM     13  C   UNL     1      18.726  -1.285 -16.993  1.00  0.00     0.025 A 
ATOM     14  C   UNL     1      18.606  -2.321 -17.932  1.00  0.00     0.016 A 
ATOM     15  C   UNL     1      19.497  -2.411 -19.003  1.00  0.00     0.051 A 
ATOM     16  C   UNL     1      20.532  -1.474 -19.143  1.00  0.00     0.157 A 
ATOM     17  C   UNL     1      19.780  -0.362 -17.122  1.00  0.00     0.062 A 
ATOM     18  C   UNL     1      20.675  -0.447 -18.195  1.00  0.00     0.158 A 
BRANCH  16  19
ATOM     19  O   UNL     1      21.416  -1.563 -20.217  1.00  0.00    -0.504 OA
ATOM     20  H   UNL     1      21.319  -2.279 -20.928  1.00  0.00     0.293 HD
ENDBRANCH  16  19
BRANCH  18  21
ATOM     21  O   UNL     1      21.701   0.490 -18.298  1.00  0.00    -0.504 OA
ATOM     22  H   UNL     1      22.603   0.260 -18.699  1.00  0.00     0.293 HD
ENDBRANCH  18  21
ENDBRANCH   3  13
BRANCH  10  23
ATOM     23  O   UNL     1      14.448  -1.761 -12.036  1.00  0.00    -0.507 OA
ATOM     24  H   UNL     1      14.375  -1.674 -11.029  1.00  0.00     0.293 HD
ENDBRANCH  10  23
BRANCH  11  25
ATOM     25  O   UNL     1      14.360   2.938 -13.206  1.00  0.00    -0.508 OA
ATOM     26  H   UNL     1      13.718   3.143 -12.449  1.00  0.00     0.293 HD
ENDBRANCH  11  25
ENDBRANCH   1   2
BRANCH   1  27
ATOM     27  C   UNL     1      17.269  -4.777 -15.552  1.00  0.00     0.339 C 
ATOM     28  C   UNL     1      17.789  -5.499 -16.815  1.00  0.00     0.214 C 
ATOM     29  O   UNL     1      17.289  -5.634 -14.422  1.00  0.00    -0.332 OA
ATOM     30  C   UNL     1      19.183  -6.109 -16.560  1.00  0.00     0.180 C 
ATOM     31  C   UNL     1      18.607  -6.051 -14.098  1.00  0.00     0.179 C 
ATOM     32  C   UNL     1      19.208  -6.905 -15.242  1.00  0.00     0.177 C 
BRANCH  28  33
ATOM     33  O   UNL     1      16.875  -6.475 -17.254  1.00  0.00    -0.384 OA
ATOM     34  H   UNL     1      16.924  -6.524 -18.245  1.00  0.00     0.211 HD
ENDBRANCH  28  33
BRANCH  30  35
ATOM     35  O   UNL     1      19.551  -6.947 -17.625  1.00  0.00    -0.387 OA
ATOM     36  H   UNL     1      19.711  -7.847 -17.238  1.00  0.00     0.211 HD
ENDBRANCH  30  35
BRANCH  31  37
ATOM     37  C   UNL     1      18.532  -6.849 -12.784  1.00  0.00     0.191 C 
BRANCH  37  38
ATOM     38  O   UNL     1      19.781  -6.902 -12.147  1.00  0.00    -0.394 OA
ATOM     39  H   UNL     1      20.464  -6.697 -12.838  1.00  0.00     0.210 HD
ENDBRANCH  37  38
ENDBRANCH  31  37
BRANCH  32  40
ATOM     40  O   UNL     1      20.536  -7.247 -14.932  1.00  0.00    -0.387 OA
ATOM     41  H   UNL     1      20.940  -7.622 -15.758  1.00  0.00     0.211 HD
ENDBRANCH  32  40
ENDBRANCH   1  27
TORSDOF 12
ENDMDL
MODEL 3
REMARK VINA RESULT:    -6.093      2.668      4.323
REMARK INTER + INTRA:         -10.225
REMARK INTER:                  -8.639
REMARK INTRA:                  -1.586
REMARK UNBOUND:                -1.282
REMARK SMILES O=c1c(O[C@@H]2O[C@@H](CO)[C@H](O)[C@@H](O)[C@H]2O)c(-c2ccc(O)c(O)c2)oc2cc(O)cc(O)c12
REMARK SMILES IDX 4 1 3 2 16 3 25 4 2 5 26 6 1 7 33 8 27 9 31 10 28 11 30 12
REMARK SMILES IDX 17 13 18 14 19 15 20 16 24 17 22 18 21 19 23 21 32 23 29 25
REMARK SMILES IDX 5 27 14 28 6 29 12 30 7 31 10 32 15 33 13 35 8 37 9 38 11 40
REMARK H PARENT 21 20 23 22 32 24 29 26 15 34 13 36 9 39 11 41
REMARK Flexibility Score: inf
ROOT
ATOM      1  O   UNL     1      18.634  -0.649 -12.608  1.00  0.00    -0.454 OA
ENDROOT
BRANCH   1   2
ATOM      2  C   UNL     1      18.561  -0.708 -14.005  1.00  0.00     0.214 A 
ATOM      3  C   UNL     1      17.446  -1.266 -14.669  1.00  0.00     0.180 A 
ATOM      4  O   UNL     1      17.456  -1.373 -15.995  1.00  0.00    -0.452 OA
ATOM      5  C   UNL     1      19.622  -0.208 -14.767  1.00  0.00     0.239 A 
ATOM      6  C   UNL     1      18.456  -0.940 -16.755  1.00  0.00     0.146 A 
ATOM      7  O   UNL     1      20.603   0.326 -14.179  1.00  0.00    -0.285 OA
ATOM      8  C   UNL     1      19.588  -0.323 -16.171  1.00  0.00     0.111 A 
ATOM      9  C   UNL     1      18.374  -1.096 -18.142  1.00  0.00     0.094 A 
ATOM     10  C   UNL     1      20.632   0.137 -17.011  1.00  0.00     0.134 A 
ATOM     11  C   UNL     1      19.405  -0.642 -18.965  1.00  0.00     0.123 A 
ATOM     12  C   UNL     1      20.529  -0.027 -18.401  1.00  0.00     0.093 A 
BRANCH   3  13
ATOM     13  C   UNL     1      16.245  -1.738 -13.941  1.00  0.00     0.025 A 
ATOM     14  C   UNL     1      15.273  -0.812 -13.536  1.00  0.00     0.016 A 
ATOM     15  C   UNL     1      14.134  -1.238 -12.848  1.00  0.00     0.051 A 
ATOM     16  C   UNL     1      13.960  -2.595 -12.541  1.00  0.00     0.157 A 
ATOM     17  C   UNL     1      16.080  -3.096 -13.610  1.00  0.00     0.062 A 
ATOM     18  C   UNL     1      14.940  -3.527 -12.921  1.00  0.00     0.158 A 
BRANCH  16  19
ATOM     19  O   UNL     1      12.819  -3.018 -11.859  1.00  0.00    -0.504 OA
ATOM     20  H   UNL     1      12.870  -3.702 -11.113  1.00  0.00     0.293 HD
ENDBRANCH  16  19
BRANCH  18  21
ATOM     21  O   UNL     1      14.803  -4.881 -12.618  1.00  0.00    -0.504 OA
ATOM     22  H   UNL     1      14.815  -5.223 -11.665  1.00  0.00     0.293 HD
ENDBRANCH  18  21
ENDBRANCH   3  13
BRANCH  10  23
ATOM     23  O   UNL     1      21.766   0.751 -16.477  1.00  0.00    -0.507 OA
ATOM     24  H   UNL     1      22.545   0.213 -16.117  1.00  0.00     0.293 HD
ENDBRANCH  10  23
BRANCH  11  25
ATOM     25  O   UNL     1      19.304  -0.806 -20.345  1.00  0.00    -0.508 OA
ATOM     26  H   UNL     1      18.450  -1.141 -20.778  1.00  0.00     0.293 HD
ENDBRANCH  11  25
ENDBRANCH   1   2
BRANCH   1  27
ATOM     27  C   UNL     1      19.441  -1.545 -11.836  1.00  0.00     0.339 C 
ATOM     28  C   UNL     1      20.293  -0.771 -10.805  1.00  0.00     0.214 C 
ATOM     29  O   UNL     1      18.636  -2.529 -11.207  1.00  0.00    -0.332 OA
ATOM     30  C   UNL     1      19.401  -0.183  -9.692  1.00  0.00     0.180 C 
ATOM     31  C   UNL     1      17.701  -1.951 -10.307  1.00  0.00     0.179 C 
ATOM     32  C   UNL     1      18.431  -1.243  -9.139  1.00  0.00     0.177 C 
BRANCH  28  33
ATOM     33  O   UNL     1      21.308  -1.588 -10.270  1.00  0.00    -0.384 OA
ATOM     34  H   UNL     1      22.079  -1.009 -10.031  1.00  0.00     0.211 HD
ENDBRANCH  28  33
BRANCH  30  35
ATOM     35  O   UNL     1      20.193   0.323  -8.648  1.00  0.00    -0.387 OA
ATOM     36  H   UNL     1      21.014   0.693  -9.067  1.00  0.00     0.211 HD
ENDBRANCH  30  35
BRANCH  31  37
ATOM     37  C   UNL     1      16.789  -3.080  -9.796  1.00  0.00     0.191 C 
BRANCH  37  38
ATOM     38  O   UNL     1      17.341  -3.713  -8.672  1.00  0.00    -0.394 OA
ATOM     39  H   UNL     1      16.917  -4.609  -8.612  1.00  0.00     0.210 HD
ENDBRANCH  37  38
ENDBRANCH  31  37
BRANCH  32  40
ATOM     40  O   UNL     1      17.490  -0.618  -8.301  1.00  0.00    -0.387 OA
ATOM     41  H   UNL     1      16.670  -0.475  -8.842  1.00  0.00     0.211 HD
ENDBRANCH  32  40
ENDBRANCH   1  27
TORSDOF 12
ENDMDL
MODEL 4
REMARK VINA RESULT:    -6.006      1.847      5.199
REMARK INTER + INTRA:         -10.097
REMARK INTER:                  -8.607
REMARK INTRA:                  -1.490
REMARK UNBOUND:                -1.282
REMARK SMILES O=c1c(O[C@@H]2O[C@@H](CO)[C@H](O)[C@@H](O)[C@H]2O)c(-c2ccc(O)c(O)c2)oc2cc(O)cc(O)c12
REMARK SMILES IDX 4 1 3 2 16 3 25 4 2 5 26 6 1 7 33 8 27 9 31 10 28 11 30 12
REMARK SMILES IDX 17 13 18 14 19 15 20 16 24 17 22 18 21 19 23 21 32 23 29 25
REMARK SMILES IDX 5 27 14 28 6 29 12 30 7 31 10 32 15 33 13 35 8 37 9 38 11 40
REMARK H PARENT 21 20 23 22 32 24 29 26 15 34 13 36 9 39 11 41
REMARK Flexibility Score: inf
ROOT
ATOM      1  O   UNL     1      16.957  -3.140 -14.355  1.00  0.00    -0.454 OA
ENDROOT
BRANCH   1   2
ATOM      2  C   UNL     1      17.709  -2.451 -15.313  1.00  0.00     0.214 A 
ATOM      3  C   UNL     1      17.971  -1.068 -15.200  1.00  0.00     0.180 A 
ATOM      4  O   UNL     1      18.623  -0.439 -16.174  1.00  0.00    -0.452 OA
ATOM      5  C   UNL     1      18.212  -3.146 -16.418  1.00  0.00     0.239 A 
ATOM      6  C   UNL     1      19.090  -1.055 -17.256  1.00  0.00     0.146 A 
ATOM      7  O   UNL     1      18.013  -4.390 -16.504  1.00  0.00    -0.285 OA
ATOM      8  C   UNL     1      18.914  -2.449 -17.422  1.00  0.00     0.111 A 
ATOM      9  C   UNL     1      19.764  -0.308 -18.226  1.00  0.00     0.094 A 
ATOM     10  C   UNL     1      19.434  -3.076 -18.581  1.00  0.00     0.134 A 
ATOM     11  C   UNL     1      20.274  -0.930 -19.367  1.00  0.00     0.123 A 
ATOM     12  C   UNL     1      20.110  -2.309 -19.542  1.00  0.00     0.093 A 
BRANCH   3  13
ATOM     13  C   UNL     1      17.550  -0.276 -14.021  1.00  0.00     0.025 A 
ATOM     14  C   UNL     1      18.460  -0.052 -12.977  1.00  0.00     0.016 A 
ATOM     15  C   UNL     1      18.081   0.691 -11.856  1.00  0.00     0.051 A 
ATOM     16  C   UNL     1      16.781   1.208 -11.757  1.00  0.00     0.157 A 
ATOM     17  C   UNL     1      16.239   0.223 -13.907  1.00  0.00     0.062 A 
ATOM     18  C   UNL     1      15.856   0.969 -12.787  1.00  0.00     0.158 A 
BRANCH  16  19
ATOM     19  O   UNL     1      16.408   1.955 -10.640  1.00  0.00    -0.504 OA
ATOM     20  H   UNL     1      16.921   2.781 -10.358  1.00  0.00     0.293 HD
ENDBRANCH  16  19
BRANCH  18  21
ATOM     21  O   UNL     1      14.552   1.456 -12.711  1.00  0.00    -0.504 OA
ATOM     22  H   UNL     1      13.748   0.885 -12.943  1.00  0.00     0.293 HD
ENDBRANCH  18  21
ENDBRANCH   3  13
BRANCH  10  23
ATOM     23  O   UNL     1      19.283  -4.449 -18.784  1.00  0.00    -0.507 OA
ATOM     24  H   UNL     1      18.443  -4.838 -19.194  1.00  0.00     0.293 HD
ENDBRANCH  10  23
BRANCH  11  25
ATOM     25  O   UNL     1      20.945  -0.168 -20.322  1.00  0.00    -0.508 OA
ATOM     26  H   UNL     1      21.522   0.623 -20.060  1.00  0.00     0.293 HD
ENDBRANCH  11  25
ENDBRANCH   1   2
BRANCH   1  27
ATOM     27  C   UNL     1      17.546  -3.751 -13.200  1.00  0.00     0.339 C 
ATOM     28  C   UNL     1      16.877  -3.241 -11.904  1.00  0.00     0.214 C 
ATOM     29  O   UNL     1      17.481  -5.165 -13.294  1.00  0.00    -0.332 OA
ATOM     30  C   UNL     1      15.435  -3.776 -11.788  1.00  0.00     0.180 C 
ATOM     31  C   UNL     1      16.140  -5.629 -13.357  1.00  0.00     0.179 C 
ATOM     32  C   UNL     1      15.381  -5.292 -12.049  1.00  0.00     0.177 C 
BRANCH  28  33
ATOM     33  O   UNL     1      17.642  -3.579 -10.772  1.00  0.00    -0.384 OA
ATOM     34  H   UNL     1      18.312  -2.861 -10.624  1.00  0.00     0.211 HD
ENDBRANCH  28  33
BRANCH  30  35
ATOM     35  O   UNL     1      14.912  -3.497 -10.514  1.00  0.00    -0.387 OA
ATOM     36  H   UNL     1      13.962  -3.240 -10.646  1.00  0.00     0.211 HD
ENDBRANCH  30  35
BRANCH  31  37
ATOM     37  C   UNL     1      16.185  -7.147 -13.603  1.00  0.00     0.191 C 
BRANCH  37  38
ATOM     38  O   UNL     1      15.016  -7.598 -14.234  1.00  0.00    -0.394 OA
ATOM     39  H   UNL     1      15.176  -8.544 -14.489  1.00  0.00     0.210 HD
ENDBRANCH  37  38
ENDBRANCH  31  37
BRANCH  32  40
ATOM     40  O   UNL     1      14.039  -5.696 -12.162  1.00  0.00    -0.387 OA
ATOM     41  H   UNL     1      13.982  -6.617 -11.794  1.00  0.00     0.211 HD
ENDBRANCH  32  40
ENDBRANCH   1  27
TORSDOF 12
ENDMDL
MODEL 5
REMARK VINA RESULT:    -5.937     11.388     13.136
REMARK INTER + INTRA:          -9.996
REMARK INTER:                  -8.167
REMARK INTRA:                  -1.829
REMARK UNBOUND:                -1.282
REMARK SMILES O=c1c(O[C@@H]2O[C@@H](CO)[C@H](O)[C@@H](O)[C@H]2O)c(-c2ccc(O)c(O)c2)oc2cc(O)cc(O)c12
REMARK SMILES IDX 4 1 3 2 16 3 25 4 2 5 26 6 1 7 33 8 27 9 31 10 28 11 30 12
REMARK SMILES IDX 17 13 18 14 19 15 20 16 24 17 22 18 21 19 23 21 32 23 29 25
REMARK SMILES IDX 5 27 14 28 6 29 12 30 7 31 10 32 15 33 13 35 8 37 9 38 11 40
REMARK H PARENT 21 20 23 22 32 24 29 26 15 34 13 36 9 39 11 41
REMARK Flexibility Score: inf
ROOT
ATOM      1  O   UNL     1       7.455   2.815 -17.624  1.00  0.00    -0.454 OA
ENDROOT
BRANCH   1   2
ATOM      2  C   UNL     1       8.484   3.765 -17.629  1.00  0.00     0.214 A 
ATOM      3  C   UNL     1       8.602   4.739 -16.613  1.00  0.00     0.180 A 
ATOM      4  O   UNL     1       9.549   5.670 -16.701  1.00  0.00    -0.452 OA
ATOM      5  C   UNL     1       9.419   3.756 -18.670  1.00  0.00     0.239 A 
ATOM      6  C   UNL     1      10.436   5.718 -17.688  1.00  0.00     0.146 A 
ATOM      7  O   UNL     1       9.339   2.864 -19.559  1.00  0.00    -0.285 OA
ATOM      8  C   UNL     1      10.418   4.748 -18.719  1.00  0.00     0.111 A 
ATOM      9  C   UNL     1      11.395   6.735 -17.694  1.00  0.00     0.094 A 
ATOM     10  C   UNL     1      11.385   4.821 -19.751  1.00  0.00     0.134 A 
ATOM     11  C   UNL     1      12.346   6.804 -18.713  1.00  0.00     0.123 A 
ATOM     12  C   UNL     1      12.341   5.849 -19.737  1.00  0.00     0.093 A 
BRANCH   3  13
ATOM     13  C   UNL     1       7.708   4.765 -15.432  1.00  0.00     0.025 A 
ATOM     14  C   UNL     1       6.742   5.776 -15.317  1.00  0.00     0.016 A 
ATOM     15  C   UNL     1       5.891   5.816 -14.209  1.00  0.00     0.051 A 
ATOM     16  C   UNL     1       6.005   4.856 -13.194  1.00  0.00     0.157 A 
ATOM     17  C   UNL     1       7.837   3.818 -14.399  1.00  0.00     0.062 A 
ATOM     18  C   UNL     1       6.986   3.855 -13.289  1.00  0.00     0.158 A 
BRANCH  16  19
ATOM     19  O   UNL     1       5.150   4.897 -12.093  1.00  0.00    -0.504 OA
ATOM     20  H   UNL     1       5.497   5.080 -11.159  1.00  0.00     0.293 HD
ENDBRANCH  16  19
BRANCH  18  21
ATOM     21  O   UNL     1       7.134   2.895 -12.289  1.00  0.00    -0.504 OA
ATOM     22  H   UNL     1       6.338   2.475 -11.823  1.00  0.00     0.293 HD
ENDBRANCH  18  21
ENDBRANCH   3  13
BRANCH  10  23
ATOM     23  O   UNL     1      11.404   3.885 -20.787  1.00  0.00    -0.507 OA
ATOM     24  H   UNL     1      11.851   2.983 -20.682  1.00  0.00     0.293 HD
ENDBRANCH  10  23
BRANCH  11  25
ATOM     25  O   UNL     1      13.294   7.825 -18.699  1.00  0.00    -0.508 OA
ATOM     26  H   UNL     1      14.239   7.675 -19.033  1.00  0.00     0.293 HD
ENDBRANCH  11  25
ENDBRANCH   1   2
BRANCH   1  27
ATOM     27  C   UNL     1       6.237   2.989 -18.357  1.00  0.00     0.339 C 
ATOM     28  C   UNL     1       5.873   1.706 -19.135  1.00  0.00     0.214 C 
ATOM     29  O   UNL     1       5.184   3.386 -17.492  1.00  0.00    -0.332 OA
ATOM     30  C   UNL     1       5.449   0.582 -18.167  1.00  0.00     0.180 C 
ATOM     31  C   UNL     1       4.921   2.406 -16.497  1.00  0.00     0.179 C 
ATOM     32  C   UNL     1       4.418   1.091 -17.143  1.00  0.00     0.177 C 
BRANCH  28  33
ATOM     33  O   UNL     1       4.874   1.960 -20.095  1.00  0.00    -0.384 OA
ATOM     34  H   UNL     1       5.318   2.139 -20.965  1.00  0.00     0.211 HD
ENDBRANCH  28  33
BRANCH  30  35
ATOM     35  O   UNL     1       4.910  -0.500 -18.882  1.00  0.00    -0.387 OA
ATOM     36  H   UNL     1       4.298  -0.115 -19.563  1.00  0.00     0.211 HD
ENDBRANCH  30  35
BRANCH  31  37
ATOM     37  C   UNL     1       3.875   2.993 -15.534  1.00  0.00     0.191 C 
BRANCH  37  38
ATOM     38  O   UNL     1       3.875   2.316 -14.305  1.00  0.00    -0.394 OA
ATOM     39  H   UNL     1       4.015   3.002 -13.601  1.00  0.00     0.210 HD
ENDBRANCH  37  38
ENDBRANCH  31  37
BRANCH  32  40
ATOM     40  O   UNL     1       4.233   0.115 -16.148  1.00  0.00    -0.387 OA
ATOM     41  H   UNL     1       3.565   0.477 -15.507  1.00  0.00     0.211 HD
ENDBRANCH  32  40
ENDBRANCH   1  27
TORSDOF 12
ENDMDL
MODEL 6
REMARK VINA RESULT:    -5.936      1.849      5.388
REMARK INTER + INTRA:          -9.994
REMARK INTER:                  -8.873
REMARK INTRA:                  -1.121
REMARK UNBOUND:                -1.282
REMARK SMILES O=c1c(O[C@@H]2O[C@@H](CO)[C@H](O)[C@@H](O)[C@H]2O)c(-c2ccc(O)c(O)c2)oc2cc(O)cc(O)c12
REMARK SMILES IDX 4 1 3 2 16 3 25 4 2 5 26 6 1 7 33 8 27 9 31 10 28 11 30 12
REMARK SMILES IDX 17 13 18 14 19 15 20 16 24 17 22 18 21 19 23 21 32 23 29 25
REMARK SMILES IDX 5 27 14 28 6 29 12 30 7 31 10 32 15 33 13 35 8 37 9 38 11 40
REMARK H PARENT 21 20 23 22 32 24 29 26 15 34 13 36 9 39 11 41
REMARK Flexibility Score: inf
ROOT
ATOM      1  O   UNL     1      17.318  -4.034 -15.994  1.00  0.00    -0.454 OA
ENDROOT
BRANCH   1   2
ATOM      2  C   UNL     1      18.133  -2.987 -16.442  1.00  0.00     0.214 A 
ATOM      3  C   UNL     1      18.213  -1.759 -15.750  1.00  0.00     0.180 A 
ATOM      4  O   UNL     1      18.939  -0.765 -16.256  1.00  0.00    -0.452 OA
ATOM      5  C   UNL     1      18.884  -3.157 -17.610  1.00  0.00     0.239 A 
ATOM      6  C   UNL     1      19.642  -0.872 -17.379  1.00  0.00     0.146 A 
ATOM      7  O   UNL     1      18.844  -4.266 -18.211  1.00  0.00    -0.285 OA
ATOM      8  C   UNL     1      19.655  -2.086 -18.106  1.00  0.00     0.111 A 
ATOM      9  C   UNL     1      20.375   0.229 -17.831  1.00  0.00     0.094 A 
ATOM     10  C   UNL     1      20.424  -2.171 -19.292  1.00  0.00     0.134 A 
ATOM     11  C   UNL     1      21.131   0.142 -19.001  1.00  0.00     0.123 A 
ATOM     12  C   UNL     1      21.155  -1.055 -19.728  1.00  0.00     0.093 A 
BRANCH   3  13
ATOM     13  C   UNL     1      17.519  -1.528 -14.462  1.00  0.00     0.025 A 
ATOM     14  C   UNL     1      18.219  -1.701 -13.258  1.00  0.00     0.016 A 
ATOM     15  C   UNL     1      17.581  -1.489 -12.033  1.00  0.00     0.051 A 
ATOM     16  C   UNL     1      16.230  -1.117 -11.995  1.00  0.00     0.157 A 
ATOM     17  C   UNL     1      16.157  -1.179 -14.419  1.00  0.00     0.062 A 
ATOM     18  C   UNL     1      15.515  -0.965 -13.195  1.00  0.00     0.158 A 
BRANCH  16  19
ATOM     19  O   UNL     1      15.598  -0.901 -10.771  1.00  0.00    -0.504 OA
ATOM     20  H   UNL     1      16.076  -0.451  -9.999  1.00  0.00     0.293 HD
ENDBRANCH  16  19
BRANCH  18  21
ATOM     21  O   UNL     1      14.167  -0.610 -13.189  1.00  0.00    -0.504 OA
ATOM     22  H   UNL     1      13.444  -1.244 -12.867  1.00  0.00     0.293 HD
ENDBRANCH  18  21
ENDBRANCH   3  13
BRANCH  10  23
ATOM     23  O   UNL     1      20.465  -3.349 -20.040  1.00  0.00    -0.507 OA
ATOM     24  H   UNL     1      20.984  -3.413 -20.907  1.00  0.00     0.293 HD
ENDBRANCH  10  23
BRANCH  11  25
ATOM     25  O   UNL     1      21.855   1.250 -19.434  1.00  0.00    -0.508 OA
ATOM     26  H   UNL     1      21.420   2.159 -19.541  1.00  0.00     0.293 HD
ENDBRANCH  11  25
ENDBRANCH   1   2
BRANCH   1  27
ATOM     27  C   UNL     1      17.636  -4.824 -14.842  1.00  0.00     0.339 C 
ATOM     28  C   UNL     1      16.414  -5.651 -14.384  1.00  0.00     0.214 C 
ATOM     29  O   UNL     1      18.756  -5.657 -15.100  1.00  0.00    -0.332 OA
ATOM     30  C   UNL     1      16.099  -6.767 -15.401  1.00  0.00     0.180 C 
ATOM     31  C   UNL     1      18.504  -6.569 -16.158  1.00  0.00     0.179 C 
ATOM     32  C   UNL     1      17.370  -7.552 -15.775  1.00  0.00     0.177 C 
BRANCH  28  33
ATOM     33  O   UNL     1      16.610  -6.174 -13.092  1.00  0.00    -0.384 OA
ATOM     34  H   UNL     1      16.132  -7.042 -13.032  1.00  0.00     0.211 HD
ENDBRANCH  28  33
BRANCH  30  35
ATOM     35  O   UNL     1      15.138  -7.647 -14.877  1.00  0.00    -0.387 OA
ATOM     36  H   UNL     1      14.261  -7.186 -14.945  1.00  0.00     0.211 HD
ENDBRANCH  30  35
BRANCH  31  37
ATOM     37  C   UNL     1      19.817  -7.315 -16.451  1.00  0.00     0.191 C 
BRANCH  37  38
ATOM     38  O   UNL     1      19.853  -7.788 -17.772  1.00  0.00    -0.394 OA
ATOM     39  H   UNL     1      19.456  -7.077 -18.340  1.00  0.00     0.210 HD
ENDBRANCH  37  38
ENDBRANCH  31  37
BRANCH  32  40
ATOM     40  O   UNL     1      17.089  -8.399 -16.862  1.00  0.00    -0.387 OA
ATOM     41  H   UNL     1      17.867  -8.350 -17.477  1.00  0.00     0.211 HD
ENDBRANCH  32  40
ENDBRANCH   1  27
TORSDOF 12
ENDMDL
MODEL 7
REMARK VINA RESULT:    -5.900     11.709     13.153
REMARK INTER + INTRA:          -9.941
REMARK INTER:                  -8.749
REMARK INTRA:                  -1.192
REMARK UNBOUND:                -1.282
REMARK SMILES O=c1c(O[C@@H]2O[C@@H](CO)[C@H](O)[C@@H](O)[C@H]2O)c(-c2ccc(O)c(O)c2)oc2cc(O)cc(O)c12
REMARK SMILES IDX 4 1 3 2 16 3 25 4 2 5 26 6 1 7 33 8 27 9 31 10 28 11 30 12
REMARK SMILES IDX 17 13 18 14 19 15 20 16 24 17 22 18 21 19 23 21 32 23 29 25
REMARK SMILES IDX 5 27 14 28 6 29 12 30 7 31 10 32 15 33 13 35 8 37 9 38 11 40
REMARK H PARENT 21 20 23 22 32 24 29 26 15 34 13 36 9 39 11 41
REMARK Flexibility Score: inf
ROOT
ATOM      1  O   UNL     1       8.150   5.257 -16.444  1.00  0.00    -0.454 OA
ENDROOT
BRANCH   1   2
ATOM      2  C   UNL     1       8.468   6.199 -17.429  1.00  0.00     0.214 A 
ATOM      3  C   UNL     1       9.653   6.107 -18.191  1.00  0.00     0.180 A 
ATOM      4  O   UNL     1       9.952   7.069 -19.061  1.00  0.00    -0.452 OA
ATOM      5  C   UNL     1       7.594   7.267 -17.662  1.00  0.00     0.239 A 
ATOM      6  C   UNL     1       9.168   8.116 -19.290  1.00  0.00     0.146 A 
ATOM      7  O   UNL     1       6.516   7.332 -17.009  1.00  0.00    -0.285 OA
ATOM      8  C   UNL     1       7.938   8.257 -18.604  1.00  0.00     0.111 A 
ATOM      9  C   UNL     1       9.568   9.075 -20.225  1.00  0.00     0.094 A 
ATOM     10  C   UNL     1       7.119   9.379 -18.881  1.00  0.00     0.134 A 
ATOM     11  C   UNL     1       8.759  10.180 -20.494  1.00  0.00     0.123 A 
ATOM     12  C   UNL     1       7.538  10.330 -19.824  1.00  0.00     0.093 A 
BRANCH   3  13
ATOM     13  C   UNL     1      10.588   4.965 -18.068  1.00  0.00     0.025 A 
ATOM     14  C   UNL     1      11.377   4.837 -16.915  1.00  0.00     0.016 A 
ATOM     15  C   UNL     1      12.265   3.766 -16.782  1.00  0.00     0.051 A 
ATOM     16  C   UNL     1      12.387   2.817 -17.806  1.00  0.00     0.157 A 
ATOM     17  C   UNL     1      10.731   4.024 -19.105  1.00  0.00     0.062 A 
ATOM     18  C   UNL     1      11.618   2.950 -18.975  1.00  0.00     0.158 A 
BRANCH  16  19
ATOM     19  O   UNL     1      13.270   1.747 -17.668  1.00  0.00    -0.504 OA
ATOM     20  H   UNL     1      14.201   1.872 -17.288  1.00  0.00     0.293 HD
ENDBRANCH  16  19
BRANCH  18  21
ATOM     21  O   UNL     1      11.728   2.031 -20.017  1.00  0.00    -0.504 OA
ATOM     22  H   UNL     1      10.939   1.481 -20.337  1.00  0.00     0.293 HD
ENDBRANCH  18  21
ENDBRANCH   3  13
BRANCH  10  23
ATOM     23  O   UNL     1       5.899   9.557 -18.227  1.00  0.00    -0.507 OA
ATOM     24  H   UNL     1       5.823  10.107 -17.380  1.00  0.00     0.293 HD
ENDBRANCH  10  23
BRANCH  11  25
ATOM     25  O   UNL     1       9.175  11.124 -21.430  1.00  0.00    -0.508 OA
ATOM     26  H   UNL     1       8.626  11.328 -22.258  1.00  0.00     0.293 HD
ENDBRANCH  11  25
ENDBRANCH   1   2
BRANCH   1  27
ATOM     27  C   UNL     1       7.324   4.116 -16.702  1.00  0.00     0.339 C 
ATOM     28  C   UNL     1       8.129   2.806 -16.555  1.00  0.00     0.214 C 
ATOM     29  O   UNL     1       6.184   4.120 -15.857  1.00  0.00    -0.332 OA
ATOM     30  C   UNL     1       8.489   2.551 -15.076  1.00  0.00     0.180 C 
ATOM     31  C   UNL     1       6.545   4.056 -14.485  1.00  0.00     0.179 C 
ATOM     32  C   UNL     1       7.257   2.717 -14.168  1.00  0.00     0.177 C 
BRANCH  28  33
ATOM     33  O   UNL     1       7.430   1.715 -17.108  1.00  0.00    -0.384 OA
ATOM     34  H   UNL     1       6.488   1.991 -17.252  1.00  0.00     0.211 HD
ENDBRANCH  28  33
BRANCH  30  35
ATOM     35  O   UNL     1       9.021   1.260 -14.920  1.00  0.00    -0.387 OA
ATOM     36  H   UNL     1       8.817   0.764 -15.755  1.00  0.00     0.211 HD
ENDBRANCH  30  35
BRANCH  31  37
ATOM     37  C   UNL     1       5.257   4.214 -13.658  1.00  0.00     0.191 C 
BRANCH  37  38
ATOM     38  O   UNL     1       4.117   3.954 -14.433  1.00  0.00    -0.394 OA
ATOM     39  H   UNL     1       3.785   4.832 -14.757  1.00  0.00     0.210 HD
ENDBRANCH  37  38
ENDBRANCH  31  37
BRANCH  32  40
ATOM     40  O   UNL     1       7.668   2.705 -12.823  1.00  0.00    -0.387 OA
ATOM     41  H   UNL     1       7.126   2.013 -12.360  1.00  0.00     0.211 HD
ENDBRANCH  32  40
ENDBRANCH   1  27
TORSDOF 12
ENDMDL
MODEL 8
REMARK VINA RESULT:    -5.725      3.899      7.297
REMARK INTER + INTRA:          -9.685
REMARK INTER:                  -8.194
REMARK INTRA:                  -1.491
REMARK UNBOUND:                -1.282
REMARK SMILES O=c1c(O[C@@H]2O[C@@H](CO)[C@H](O)[C@@H](O)[C@H]2O)c(-c2ccc(O)c(O)c2)oc2cc(O)cc(O)c12
REMARK SMILES IDX 4 1 3 2 16 3 25 4 2 5 26 6 1 7 33 8 27 9 31 10 28 11 30 12
REMARK SMILES IDX 17 13 18 14 19 15 20 16 24 17 22 18 21 19 23 21 32 23 29 25
REMARK SMILES IDX 5 27 14 28 6 29 12 30 7 31 10 32 15 33 13 35 8 37 9 38 11 40
REMARK H PARENT 21 20 23 22 32 24 29 26 15 34 13 36 9 39 11 41
REMARK Flexibility Score: inf
ROOT
ATOM      1  O   UNL     1      19.026   0.545 -10.611  1.00  0.00    -0.454 OA
ENDROOT
BRANCH   1   2
ATOM      2  C   UNL     1      18.868  -0.644 -11.334  1.00  0.00     0.214 A 
ATOM      3  C   UNL     1      19.104  -1.908 -10.749  1.00  0.00     0.180 A 
ATOM      4  O   UNL     1      19.017  -3.005 -11.496  1.00  0.00    -0.452 OA
ATOM      5  C   UNL     1      18.471  -0.583 -12.674  1.00  0.00     0.239 A 
ATOM      6  C   UNL     1      18.676  -2.990 -12.780  1.00  0.00     0.146 A 
ATOM      7  O   UNL     1      18.222   0.542 -13.190  1.00  0.00    -0.285 OA
ATOM      8  C   UNL     1      18.374  -1.769 -13.429  1.00  0.00     0.111 A 
ATOM      9  C   UNL     1      18.611  -4.197 -13.482  1.00  0.00     0.094 A 
ATOM     10  C   UNL     1      18.001  -1.788 -14.795  1.00  0.00     0.134 A 
ATOM     11  C   UNL     1      18.245  -4.212 -14.828  1.00  0.00     0.123 A 
ATOM     12  C   UNL     1      17.940  -3.011 -15.482  1.00  0.00     0.093 A 
BRANCH   3  13
ATOM     13  C   UNL     1      19.442  -2.066  -9.316  1.00  0.00     0.025 A 
ATOM     14  C   UNL     1      20.781  -1.981  -8.907  1.00  0.00     0.016 A 
ATOM     15  C   UNL     1      21.119  -2.129  -7.559  1.00  0.00     0.051 A 
ATOM     16  C   UNL     1      20.124  -2.380  -6.603  1.00  0.00     0.157 A 
ATOM     17  C   UNL     1      18.448  -2.343  -8.358  1.00  0.00     0.062 A 
ATOM     18  C   UNL     1      18.783  -2.491  -7.007  1.00  0.00     0.158 A 
BRANCH  16  19
ATOM     19  O   UNL     1      20.464  -2.521  -5.259  1.00  0.00    -0.504 OA
ATOM     20  H   UNL     1      20.303  -1.778  -4.589  1.00  0.00     0.293 HD
ENDBRANCH  16  19
BRANCH  18  21
ATOM     21  O   UNL     1      17.772  -2.754  -6.084  1.00  0.00    -0.504 OA
ATOM     22  H   UNL     1      17.773  -2.350  -5.155  1.00  0.00     0.293 HD
ENDBRANCH  18  21
ENDBRANCH   3  13
BRANCH  10  23
ATOM     23  O   UNL     1      17.695  -0.608 -15.474  1.00  0.00    -0.507 OA
ATOM     24  H   UNL     1      16.745  -0.265 -15.546  1.00  0.00     0.293 HD
ENDBRANCH  10  23
BRANCH  11  25
ATOM     25  O   UNL     1      18.185  -5.425 -15.510  1.00  0.00    -0.508 OA
ATOM     26  H   UNL     1      18.246  -5.469 -16.521  1.00  0.00     0.293 HD
ENDBRANCH  11  25
ENDBRANCH   1   2
BRANCH   1  27
ATOM     27  C   UNL     1      18.015   1.060  -9.738  1.00  0.00     0.339 C 
ATOM     28  C   UNL     1      18.627   1.526  -8.398  1.00  0.00     0.214 C 
ATOM     29  O   UNL     1      17.294   2.106 -10.369  1.00  0.00    -0.332 OA
ATOM     30  C   UNL     1      19.482   2.794  -8.602  1.00  0.00     0.180 C 
ATOM     31  C   UNL     1      18.135   3.200 -10.703  1.00  0.00     0.179 C 
ATOM     32  C   UNL     1      18.723   3.850  -9.425  1.00  0.00     0.177 C 
BRANCH  28  33
ATOM     33  O   UNL     1      17.629   1.732  -7.428  1.00  0.00    -0.384 OA
ATOM     34  H   UNL     1      18.062   1.744  -6.534  1.00  0.00     0.211 HD
ENDBRANCH  28  33
BRANCH  30  35
ATOM     35  O   UNL     1      19.851   3.339  -7.361  1.00  0.00    -0.387 OA
ATOM     36  H   UNL     1      19.663   4.313  -7.409  1.00  0.00     0.211 HD
ENDBRANCH  30  35
BRANCH  31  37
ATOM     37  C   UNL     1      17.292   4.206 -11.505  1.00  0.00     0.191 C 
BRANCH  37  38
ATOM     38  O   UNL     1      16.863   5.272 -10.700  1.00  0.00    -0.394 OA
ATOM     39  H   UNL     1      17.237   5.114  -9.794  1.00  0.00     0.210 HD
ENDBRANCH  37  38
ENDBRANCH  31  37
BRANCH  32  40
ATOM     40  O   UNL     1      19.607   4.884  -9.783  1.00  0.00    -0.387 OA
ATOM     41  H   UNL     1      19.310   5.227 -10.666  1.00  0.00     0.211 HD
ENDBRANCH  32  40
ENDBRANCH   1  27
TORSDOF 12
ENDMDL
MODEL 9
REMARK VINA RESULT:    -5.680     10.657     13.379
REMARK INTER + INTRA:          -9.619
REMARK INTER:                  -8.047
REMARK INTRA:                  -1.572
REMARK UNBOUND:                -1.282
REMARK SMILES O=c1c(O[C@@H]2O[C@@H](CO)[C@H](O)[C@@H](O)[C@H]2O)c(-c2ccc(O)c(O)c2)oc2cc(O)cc(O)c12
REMARK SMILES IDX 4 1 3 2 16 3 25 4 2 5 26 6 1 7 33 8 27 9 31 10 28 11 30 12
REMARK SMILES IDX 17 13 18 14 19 15 20 16 24 17 22 18 21 19 23 21 32 23 29 25
REMARK SMILES IDX 5 27 14 28 6 29 12 30 7 31 10 32 15 33 13 35 8 37 9 38 11 40
REMARK H PARENT 21 20 23 22 32 24 29 26 15 34 13 36 9 39 11 41
REMARK Flexibility Score: inf
ROOT
ATOM      1  O   UNL     1       9.716   3.879 -16.132  1.00  0.00    -0.454 OA
ENDROOT
BRANCH   1   2
ATOM      2  C   UNL     1       8.759   4.273 -15.188  1.00  0.00     0.214 A 
ATOM      3  C   UNL     1       7.396   3.931 -15.324  1.00  0.00     0.180 A 
ATOM      4  O   UNL     1       6.511   4.394 -14.444  1.00  0.00    -0.452 OA
ATOM      5  C   UNL     1       9.161   5.031 -14.082  1.00  0.00     0.239 A 
ATOM      6  C   UNL     1       6.844   5.143 -13.398  1.00  0.00     0.146 A 
ATOM      7  O   UNL     1      10.383   5.306 -13.937  1.00  0.00    -0.285 OA
ATOM      8  C   UNL     1       8.196   5.488 -13.162  1.00  0.00     0.111 A 
ATOM      9  C   UNL     1       5.842   5.581 -12.528  1.00  0.00     0.094 A 
ATOM     10  C   UNL     1       8.519   6.278 -12.032  1.00  0.00     0.134 A 
ATOM     11  C   UNL     1       6.164   6.360 -11.416  1.00  0.00     0.123 A 
ATOM     12  C   UNL     1       7.498   6.706 -11.169  1.00  0.00     0.093 A 
BRANCH   3  13
ATOM     13  C   UNL     1       6.902   3.061 -16.415  1.00  0.00     0.025 A 
ATOM     14  C   UNL     1       6.901   1.668 -16.243  1.00  0.00     0.016 A 
ATOM     15  C   UNL     1       6.440   0.831 -17.263  1.00  0.00     0.051 A 
ATOM     16  C   UNL     1       5.988   1.374 -18.474  1.00  0.00     0.157 A 
ATOM     17  C   UNL     1       6.471   3.601 -17.641  1.00  0.00     0.062 A 
ATOM     18  C   UNL     1       6.008   2.766 -18.664  1.00  0.00     0.158 A 
BRANCH  16  19
ATOM     19  O   UNL     1       5.523   0.536 -19.487  1.00  0.00    -0.504 OA
ATOM     20  H   UNL     1       4.639   0.047 -19.407  1.00  0.00     0.293 HD
ENDBRANCH  16  19
BRANCH  18  21
ATOM     21  O   UNL     1       5.579   3.335 -19.862  1.00  0.00    -0.504 OA
ATOM     22  H   UNL     1       6.218   3.797 -20.498  1.00  0.00     0.293 HD
ENDBRANCH  18  21
ENDBRANCH   3  13
BRANCH  10  23
ATOM     23  O   UNL     1       9.839   6.641 -11.762  1.00  0.00    -0.507 OA
ATOM     24  H   UNL     1      10.481   6.012 -11.296  1.00  0.00     0.293 HD
ENDBRANCH  10  23
BRANCH  11  25
ATOM     25  O   UNL     1       5.150   6.786 -10.560  1.00  0.00    -0.508 OA
ATOM     26  H   UNL     1       4.173   6.725 -10.823  1.00  0.00     0.293 HD
ENDBRANCH  11  25
ENDBRANCH   1   2
BRANCH   1  27
ATOM     27  C   UNL     1      10.207   4.759 -17.150  1.00  0.00     0.339 C 
ATOM     28  C   UNL     1      11.751   4.812 -17.136  1.00  0.00     0.214 C 
ATOM     29  O   UNL     1       9.714   4.375 -18.424  1.00  0.00    -0.332 OA
ATOM     30  C   UNL     1      12.346   3.475 -17.622  1.00  0.00     0.180 C 
ATOM     31  C   UNL     1      10.136   3.067 -18.781  1.00  0.00     0.179 C 
ATOM     32  C   UNL     1      11.677   3.010 -18.929  1.00  0.00     0.177 C 
BRANCH  28  33
ATOM     33  O   UNL     1      12.228   5.894 -17.900  1.00  0.00    -0.384 OA
ATOM     34  H   UNL     1      11.446   6.395 -18.252  1.00  0.00     0.211 HD
ENDBRANCH  28  33
BRANCH  30  35
ATOM     35  O   UNL     1      13.731   3.601 -17.820  1.00  0.00    -0.387 OA
ATOM     36  H   UNL     1      13.856   4.007 -18.718  1.00  0.00     0.211 HD
ENDBRANCH  30  35
BRANCH  31  37
ATOM     37  C   UNL     1       9.434   2.696 -20.099  1.00  0.00     0.191 C 
BRANCH  37  38
ATOM     38  O   UNL     1      10.360   2.497 -21.134  1.00  0.00    -0.394 OA
ATOM     39  H   UNL     1       9.836   2.263 -21.944  1.00  0.00     0.210 HD
ENDBRANCH  37  38
ENDBRANCH  31  37
BRANCH  32  40
ATOM     40  O   UNL     1      12.079   1.693 -19.212  1.00  0.00    -0.387 OA
ATOM     41  H   UNL     1      12.963   1.560 -18.781  1.00  0.00     0.211 HD
ENDBRANCH  32  40
ENDBRANCH   1  27
TORSDOF 12
ENDMDL
