MODEL 1
REMARK VINA RESULT:    -5.143      0.000      0.000
REMARK INTER + INTRA:         -10.732
REMARK INTER:                  -9.352
REMARK INTRA:                  -1.380
REMARK UNBOUND:                -1.380
REMARK SMILES CCCCCCCCCCCCCCCC(=O)[O-]
REMARK SMILES IDX 9 1 10 2 11 3 12 4 13 5 14 6 15 7 16 8 17 9 18 10 8 11 7 12
REMARK SMILES IDX 6 13 5 14 4 15 3 16 2 17 1 18
REMARK H PARENT
REMARK Flexibility Score: inf
ROOT
ATOM      1  C   UNL     1      43.029  -4.786  28.100  1.00  0.00     0.000 C 
ENDROOT
BRANCH   1   2
ATOM      2  C   UNL     1      42.125  -3.541  28.202  1.00  0.00     0.000 C 
BRANCH   2   3
ATOM      3  C   UNL     1      42.525  -2.528  29.293  1.00  0.00     0.000 C 
BRANCH   3   4
ATOM      4  C   UNL     1      44.038  -2.291  29.441  1.00  0.00     0.000 C 
BRANCH   4   5
ATOM      5  C   UNL     1      44.561  -1.177  28.518  1.00  0.00     0.000 C 
BRANCH   5   6
ATOM      6  C   UNL     1      45.889  -1.548  27.838  1.00  0.00     0.006 C 
BRANCH   6   7
ATOM      7  C   UNL     1      46.047  -3.061  27.635  1.00  0.00     0.053 C 
BRANCH   7   8
ATOM      8  C   UNL     1      46.932  -3.338  26.460  1.00  0.00     0.041 C 
ATOM      9  O   UNL     1      47.834  -4.214  26.539  1.00  0.00    -0.550 OA
ATOM     10  O   UNL     1      46.729  -2.666  25.263  1.00  0.00    -0.550 OA
ENDBRANCH   7   8
ENDBRANCH   6   7
ENDBRANCH   5   6
ENDBRANCH   4   5
ENDBRANCH   3   4
ENDBRANCH   2   3
ENDBRANCH   1   2
BRANCH   1  11
ATOM     11  C   UNL     1      42.986  -5.510  26.743  1.00  0.00     0.000 C 
BRANCH  11  12
ATOM     12  C   UNL     1      44.383  -5.869  26.215  1.00  0.00    -0.000 C 
BRANCH  12  13
ATOM     13  C   UNL     1      44.976  -7.051  26.990  1.00  0.00    -0.000 C 
BRANCH  13  14
ATOM     14  C   UNL     1      46.263  -7.557  26.321  1.00  0.00    -0.000 C 
BRANCH  14  15
ATOM     15  C   UNL     1      46.479  -6.966  24.917  1.00  0.00    -0.000 C 
BRANCH  15  16
ATOM     16  C   UNL     1      47.814  -7.347  24.244  1.00  0.00    -0.000 C 
BRANCH  16  17
ATOM     17  C   UNL     1      48.979  -7.609  25.214  1.00  0.00    -0.003 C 
ATOM     18  C   UNL     1      50.041  -6.510  25.180  1.00  0.00     0.004 C 
ENDBRANCH  16  17
ENDBRANCH  15  16
ENDBRANCH  14  15
ENDBRANCH  13  14
ENDBRANCH  12  13
ENDBRANCH  11  12
ENDBRANCH   1  11
TORSDOF 14
ENDMDL
MODEL 2
REMARK VINA RESULT:    -5.061      2.626      6.557
REMARK INTER + INTRA:         -10.584
REMARK INTER:                  -9.487
REMARK INTRA:                  -1.097
REMARK UNBOUND:                -1.380
REMARK SMILES CCCCCCCCCCCCCCCC(=O)[O-]
REMARK SMILES IDX 9 1 10 2 11 3 12 4 13 5 14 6 15 7 16 8 17 9 18 10 8 11 7 12
REMARK SMILES IDX 6 13 5 14 4 15 3 16 2 17 1 18
REMARK H PARENT
REMARK Flexibility Score: inf
ROOT
ATOM      1  C   UNL     1      44.715  -5.393  27.503  1.00  0.00     0.000 C 
ENDROOT
BRANCH   1   2
ATOM      2  C   UNL     1      44.539  -6.038  26.114  1.00  0.00     0.000 C 
BRANCH   2   3
ATOM      3  C   UNL     1      45.344  -7.332  25.884  1.00  0.00     0.000 C 
BRANCH   3   4
ATOM      4  C   UNL     1      45.637  -7.665  24.411  1.00  0.00     0.000 C 
BRANCH   4   5
ATOM      5  C   UNL     1      47.067  -7.286  23.986  1.00  0.00     0.000 C 
BRANCH   5   6
ATOM      6  C   UNL     1      48.021  -7.147  25.184  1.00  0.00     0.006 C 
BRANCH   6   7
ATOM      7  C   UNL     1      48.615  -5.737  25.306  1.00  0.00     0.053 C 
BRANCH   7   8
ATOM      8  C   UNL     1      50.104  -5.809  25.435  1.00  0.00     0.041 C 
ATOM      9  O   UNL     1      50.742  -6.749  24.894  1.00  0.00    -0.550 OA
ATOM     10  O   UNL     1      50.792  -4.810  26.110  1.00  0.00    -0.550 OA
ENDBRANCH   7   8
ENDBRANCH   6   7
ENDBRANCH   5   6
ENDBRANCH   4   5
ENDBRANCH   3   4
ENDBRANCH   2   3
ENDBRANCH   1   2
BRANCH   1  11
ATOM     11  C   UNL     1      43.476  -4.653  28.038  1.00  0.00     0.000 C 
BRANCH  11  12
ATOM     12  C   UNL     1      42.474  -5.591  28.727  1.00  0.00    -0.000 C 
BRANCH  12  13
ATOM     13  C   UNL     1      41.206  -5.757  27.881  1.00  0.00    -0.000 C 
BRANCH  13  14
ATOM     14  C   UNL     1      41.146  -4.699  26.768  1.00  0.00    -0.000 C 
BRANCH  14  15
ATOM     15  C   UNL     1      39.734  -4.121  26.570  1.00  0.00    -0.000 C 
BRANCH  15  16
ATOM     16  C   UNL     1      38.593  -5.159  26.581  1.00  0.00    -0.000 C 
BRANCH  16  17
ATOM     17  C   UNL     1      38.513  -6.049  25.329  1.00  0.00    -0.003 C 
ATOM     18  C   UNL     1      38.081  -7.482  25.644  1.00  0.00     0.004 C 
ENDBRANCH  16  17
ENDBRANCH  15  16
ENDBRANCH  14  15
ENDBRANCH  13  14
ENDBRANCH  12  13
ENDBRANCH  11  12
ENDBRANCH   1  11
TORSDOF 14
ENDMDL
MODEL 3
REMARK VINA RESULT:    -5.022      4.107      7.482
REMARK INTER + INTRA:         -10.512
REMARK INTER:                  -9.837
REMARK INTRA:                  -0.675
REMARK UNBOUND:                -1.380
REMARK SMILES CCCCCCCCCCCCCCCC(=O)[O-]
REMARK SMILES IDX 9 1 10 2 11 3 12 4 13 5 14 6 15 7 16 8 17 9 18 10 8 11 7 12
REMARK SMILES IDX 6 13 5 14 4 15 3 16 2 17 1 18
REMARK H PARENT
REMARK Flexibility Score: inf
ROOT
ATOM      1  C   UNL     1      42.612  -5.224  26.736  1.00  0.00     0.000 C 
ENDROOT
BRANCH   1   2
ATOM      2  C   UNL     1      43.608  -5.871  27.719  1.00  0.00     0.000 C 
BRANCH   2   3
ATOM      3  C   UNL     1      45.064  -5.954  27.219  1.00  0.00     0.000 C 
BRANCH   3   4
ATOM      4  C   UNL     1      45.493  -7.332  26.686  1.00  0.00     0.000 C 
BRANCH   4   5
ATOM      5  C   UNL     1      45.273  -7.480  25.170  1.00  0.00     0.000 C 
BRANCH   5   6
ATOM      6  C   UNL     1      46.564  -7.267  24.363  1.00  0.00     0.006 C 
BRANCH   6   7
ATOM      7  C   UNL     1      47.828  -7.394  25.224  1.00  0.00     0.053 C 
BRANCH   7   8
ATOM      8  C   UNL     1      48.576  -6.098  25.246  1.00  0.00     0.041 C 
ATOM      9  O   UNL     1      47.984  -5.020  24.974  1.00  0.00    -0.550 OA
ATOM     10  O   UNL     1      49.914  -6.074  25.614  1.00  0.00    -0.550 OA
ENDBRANCH   7   8
ENDBRANCH   6   7
ENDBRANCH   5   6
ENDBRANCH   4   5
ENDBRANCH   3   4
ENDBRANCH   2   3
ENDBRANCH   1   2
BRANCH   1  11
ATOM     11  C   UNL     1      41.138  -5.279  27.176  1.00  0.00     0.000 C 
BRANCH  11  12
ATOM     12  C   UNL     1      40.264  -4.236  26.463  1.00  0.00    -0.000 C 
BRANCH  12  13
ATOM     13  C   UNL     1      38.818  -4.728  26.332  1.00  0.00    -0.000 C 
BRANCH  13  14
ATOM     14  C   UNL     1      38.768  -6.125  25.694  1.00  0.00    -0.000 C 
BRANCH  14  15
ATOM     15  C   UNL     1      37.379  -6.779  25.795  1.00  0.00    -0.000 C 
BRANCH  15  16
ATOM     16  C   UNL     1      36.611  -6.895  24.463  1.00  0.00    -0.000 C 
BRANCH  16  17
ATOM     17  C   UNL     1      35.309  -7.712  24.533  1.00  0.00    -0.003 C 
ATOM     18  C   UNL     1      34.055  -6.842  24.445  1.00  0.00     0.004 C 
ENDBRANCH  16  17
ENDBRANCH  15  16
ENDBRANCH  14  15
ENDBRANCH  13  14
ENDBRANCH  12  13
ENDBRANCH  11  12
ENDBRANCH   1  11
TORSDOF 14
ENDMDL
MODEL 4
REMARK VINA RESULT:    -5.019      2.173      3.854
REMARK INTER + INTRA:         -10.507
REMARK INTER:                  -8.682
REMARK INTRA:                  -1.825
REMARK UNBOUND:                -1.380
REMARK SMILES CCCCCCCCCCCCCCCC(=O)[O-]
REMARK SMILES IDX 9 1 10 2 11 3 12 4 13 5 14 6 15 7 16 8 17 9 18 10 8 11 7 12
REMARK SMILES IDX 6 13 5 14 4 15 3 16 2 17 1 18
REMARK H PARENT
REMARK Flexibility Score: inf
ROOT
ATOM      1  C   UNL     1      45.327  -5.359  27.811  1.00  0.00     0.000 C 
ENDROOT
BRANCH   1   2
ATOM      2  C   UNL     1      43.842  -5.768  27.889  1.00  0.00     0.000 C 
BRANCH   2   3
ATOM      3  C   UNL     1      42.968  -5.291  26.712  1.00  0.00     0.000 C 
BRANCH   3   4
ATOM      4  C   UNL     1      41.721  -4.482  27.111  1.00  0.00     0.000 C 
BRANCH   4   5
ATOM      5  C   UNL     1      41.511  -4.422  28.634  1.00  0.00     0.000 C 
BRANCH   5   6
ATOM      6  C   UNL     1      41.800  -3.029  29.215  1.00  0.00     0.006 C 
BRANCH   6   7
ATOM      7  C   UNL     1      43.154  -2.957  29.933  1.00  0.00     0.053 C 
BRANCH   7   8
ATOM      8  C   UNL     1      43.829  -1.653  29.644  1.00  0.00     0.041 C 
ATOM      9  O   UNL     1      44.706  -1.579  28.744  1.00  0.00    -0.550 OA
ATOM     10  O   UNL     1      43.453  -0.509  30.335  1.00  0.00    -0.550 OA
ENDBRANCH   7   8
ENDBRANCH   6   7
ENDBRANCH   5   6
ENDBRANCH   4   5
ENDBRANCH   3   4
ENDBRANCH   2   3
ENDBRANCH   1   2
BRANCH   1  11
ATOM     11  C   UNL     1      45.690  -4.454  26.621  1.00  0.00     0.000 C 
BRANCH  11  12
ATOM     12  C   UNL     1      47.204  -4.237  26.478  1.00  0.00    -0.000 C 
BRANCH  12  13
ATOM     13  C   UNL     1      47.733  -4.893  25.197  1.00  0.00    -0.000 C 
BRANCH  13  14
ATOM     14  C   UNL     1      48.571  -6.138  25.523  1.00  0.00    -0.000 C 
BRANCH  14  15
ATOM     15  C   UNL     1      47.956  -7.435  24.968  1.00  0.00    -0.000 C 
BRANCH  15  16
ATOM     16  C   UNL     1      46.782  -7.236  23.988  1.00  0.00    -0.000 C 
BRANCH  16  17
ATOM     17  C   UNL     1      45.393  -7.567  24.561  1.00  0.00    -0.003 C 
ATOM     18  C   UNL     1      45.460  -8.251  25.926  1.00  0.00     0.004 C 
ENDBRANCH  16  17
ENDBRANCH  15  16
ENDBRANCH  14  15
ENDBRANCH  13  14
ENDBRANCH  12  13
ENDBRANCH  11  12
ENDBRANCH   1  11
TORSDOF 14
ENDMDL
MODEL 5
REMARK VINA RESULT:    -5.006      4.423      5.830
REMARK INTER + INTRA:         -10.482
REMARK INTER:                  -9.488
REMARK INTRA:                  -0.994
REMARK UNBOUND:                -1.380
REMARK SMILES CCCCCCCCCCCCCCCC(=O)[O-]
REMARK SMILES IDX 9 1 10 2 11 3 12 4 13 5 14 6 15 7 16 8 17 9 18 10 8 11 7 12
REMARK SMILES IDX 6 13 5 14 4 15 3 16 2 17 1 18
REMARK H PARENT
REMARK Flexibility Score: inf
ROOT
ATOM      1  C   UNL     1      43.697  -4.944  27.648  1.00  0.00     0.000 C 
ENDROOT
BRANCH   1   2
ATOM      2  C   UNL     1      42.567  -5.817  28.227  1.00  0.00     0.000 C 
BRANCH   2   3
ATOM      3  C   UNL     1      41.161  -5.185  28.184  1.00  0.00     0.000 C 
BRANCH   3   4
ATOM      4  C   UNL     1      40.876  -4.311  26.950  1.00  0.00     0.000 C 
BRANCH   4   5
ATOM      5  C   UNL     1      39.564  -4.689  26.241  1.00  0.00     0.000 C 
BRANCH   5   6
ATOM      6  C   UNL     1      39.151  -6.147  26.501  1.00  0.00     0.006 C 
BRANCH   6   7
ATOM      7  C   UNL     1      38.742  -6.883  25.218  1.00  0.00     0.053 C 
BRANCH   7   8
ATOM      8  C   UNL     1      37.290  -7.243  25.265  1.00  0.00     0.041 C 
ATOM      9  O   UNL     1      36.529  -6.933  24.311  1.00  0.00    -0.550 OA
ATOM     10  O   UNL     1      36.787  -7.963  26.340  1.00  0.00    -0.550 OA
ENDBRANCH   7   8
ENDBRANCH   6   7
ENDBRANCH   5   6
ENDBRANCH   4   5
ENDBRANCH   3   4
ENDBRANCH   2   3
ENDBRANCH   1   2
BRANCH   1  11
ATOM     11  C   UNL     1      44.545  -5.619  26.556  1.00  0.00     0.000 C 
BRANCH  11  12
ATOM     12  C   UNL     1      45.371  -6.799  27.087  1.00  0.00    -0.000 C 
BRANCH  12  13
ATOM     13  C   UNL     1      45.459  -7.921  26.046  1.00  0.00    -0.000 C 
BRANCH  13  14
ATOM     14  C   UNL     1      45.379  -7.355  24.620  1.00  0.00    -0.000 C 
BRANCH  14  15
ATOM     15  C   UNL     1      46.680  -7.555  23.824  1.00  0.00    -0.000 C 
BRANCH  15  16
ATOM     16  C   UNL     1      47.867  -6.681  24.278  1.00  0.00    -0.000 C 
BRANCH  16  17
ATOM     17  C   UNL     1      48.971  -7.430  25.043  1.00  0.00    -0.003 C 
ATOM     18  C   UNL     1      50.186  -6.554  25.347  1.00  0.00     0.004 C 
ENDBRANCH  16  17
ENDBRANCH  15  16
ENDBRANCH  14  15
ENDBRANCH  13  14
ENDBRANCH  12  13
ENDBRANCH  11  12
ENDBRANCH   1  11
TORSDOF 14
ENDMDL
MODEL 6
REMARK VINA RESULT:    -4.900      5.600      7.157
REMARK INTER + INTRA:         -10.290
REMARK INTER:                  -9.686
REMARK INTRA:                  -0.604
REMARK UNBOUND:                -1.380
REMARK SMILES CCCCCCCCCCCCCCCC(=O)[O-]
REMARK SMILES IDX 9 1 10 2 11 3 12 4 13 5 14 6 15 7 16 8 17 9 18 10 8 11 7 12
REMARK SMILES IDX 6 13 5 14 4 15 3 16 2 17 1 18
REMARK H PARENT
REMARK Flexibility Score: inf
ROOT
ATOM      1  C   UNL     1      41.692  -5.451  28.120  1.00  0.00     0.000 C 
ENDROOT
BRANCH   1   2
ATOM      2  C   UNL     1      40.329  -4.752  27.951  1.00  0.00     0.000 C 
BRANCH   2   3
ATOM      3  C   UNL     1      39.927  -4.440  26.496  1.00  0.00     0.000 C 
BRANCH   3   4
ATOM      4  C   UNL     1      38.641  -5.133  26.011  1.00  0.00     0.000 C 
BRANCH   4   5
ATOM      5  C   UNL     1      38.888  -6.569  25.516  1.00  0.00     0.000 C 
BRANCH   5   6
ATOM      6  C   UNL     1      37.631  -7.450  25.610  1.00  0.00     0.006 C 
BRANCH   6   7
ATOM      7  C   UNL     1      36.571  -7.081  24.563  1.00  0.00     0.053 C 
BRANCH   7   8
ATOM      8  C   UNL     1      35.203  -7.420  25.066  1.00  0.00     0.041 C 
ATOM      9  O   UNL     1      34.317  -7.826  24.268  1.00  0.00    -0.550 OA
ATOM     10  O   UNL     1      34.921  -7.333  26.422  1.00  0.00    -0.550 OA
ENDBRANCH   7   8
ENDBRANCH   6   7
ENDBRANCH   5   6
ENDBRANCH   4   5
ENDBRANCH   3   4
ENDBRANCH   2   3
ENDBRANCH   1   2
BRANCH   1  11
ATOM     11  C   UNL     1      42.712  -5.165  27.004  1.00  0.00     0.000 C 
BRANCH  11  12
ATOM     12  C   UNL     1      44.128  -5.646  27.353  1.00  0.00    -0.000 C 
BRANCH  12  13
ATOM     13  C   UNL     1      44.962  -5.865  26.085  1.00  0.00    -0.000 C 
BRANCH  13  14
ATOM     14  C   UNL     1      45.238  -7.359  25.860  1.00  0.00    -0.000 C 
BRANCH  14  15
ATOM     15  C   UNL     1      45.452  -7.711  24.377  1.00  0.00    -0.000 C 
BRANCH  15  16
ATOM     16  C   UNL     1      46.839  -7.343  23.810  1.00  0.00    -0.000 C 
BRANCH  16  17
ATOM     17  C   UNL     1      47.053  -7.708  22.331  1.00  0.00    -0.003 C 
ATOM     18  C   UNL     1      48.529  -7.739  21.934  1.00  0.00     0.004 C 
ENDBRANCH  16  17
ENDBRANCH  15  16
ENDBRANCH  14  15
ENDBRANCH  13  14
ENDBRANCH  12  13
ENDBRANCH  11  12
ENDBRANCH   1  11
TORSDOF 14
ENDMDL
MODEL 7
REMARK VINA RESULT:    -4.856      3.837      5.578
REMARK INTER + INTRA:         -10.211
REMARK INTER:                  -8.785
REMARK INTRA:                  -1.425
REMARK UNBOUND:                -1.380
REMARK SMILES CCCCCCCCCCCCCCCC(=O)[O-]
REMARK SMILES IDX 9 1 10 2 11 3 12 4 13 5 14 6 15 7 16 8 17 9 18 10 8 11 7 12
REMARK SMILES IDX 6 13 5 14 4 15 3 16 2 17 1 18
REMARK H PARENT
REMARK Flexibility Score: inf
ROOT
ATOM      1  C   UNL     1      44.631  -6.360  25.981  1.00  0.00     0.000 C 
ENDROOT
BRANCH   1   2
ATOM      2  C   UNL     1      44.645  -6.074  27.496  1.00  0.00     0.000 C 
BRANCH   2   3
ATOM      3  C   UNL     1      43.285  -5.676  28.102  1.00  0.00     0.000 C 
BRANCH   3   4
ATOM      4  C   UNL     1      42.571  -4.512  27.394  1.00  0.00     0.000 C 
BRANCH   4   5
ATOM      5  C   UNL     1      41.054  -4.496  27.653  1.00  0.00     0.000 C 
BRANCH   5   6
ATOM      6  C   UNL     1      40.251  -5.109  26.494  1.00  0.00     0.006 C 
BRANCH   6   7
ATOM      7  C   UNL     1      39.257  -6.179  26.965  1.00  0.00     0.053 C 
BRANCH   7   8
ATOM      8  C   UNL     1      38.110  -6.281  26.008  1.00  0.00     0.041 C 
ATOM      9  O   UNL     1      38.321  -6.314  24.767  1.00  0.00    -0.550 OA
ATOM     10  O   UNL     1      36.812  -6.391  26.489  1.00  0.00    -0.550 OA
ENDBRANCH   7   8
ENDBRANCH   6   7
ENDBRANCH   5   6
ENDBRANCH   4   5
ENDBRANCH   3   4
ENDBRANCH   2   3
ENDBRANCH   1   2
BRANCH   1  11
ATOM     11  C   UNL     1      45.425  -7.605  25.547  1.00  0.00     0.000 C 
BRANCH  11  12
ATOM     12  C   UNL     1      45.555  -7.727  24.022  1.00  0.00    -0.000 C 
BRANCH  12  13
ATOM     13  C   UNL     1      46.960  -7.323  23.558  1.00  0.00    -0.000 C 
BRANCH  13  14
ATOM     14  C   UNL     1      48.001  -7.597  24.653  1.00  0.00    -0.000 C 
BRANCH  14  15
ATOM     15  C   UNL     1      48.903  -6.383  24.937  1.00  0.00    -0.000 C 
BRANCH  15  16
ATOM     16  C   UNL     1      48.171  -5.028  25.024  1.00  0.00    -0.000 C 
BRANCH  16  17
ATOM     17  C   UNL     1      47.843  -4.558  26.451  1.00  0.00    -0.003 C 
ATOM     18  C   UNL     1      46.888  -3.364  26.480  1.00  0.00     0.004 C 
ENDBRANCH  16  17
ENDBRANCH  15  16
ENDBRANCH  14  15
ENDBRANCH  13  14
ENDBRANCH  12  13
ENDBRANCH  11  12
ENDBRANCH   1  11
TORSDOF 14
ENDMDL
MODEL 8
REMARK VINA RESULT:    -4.752      1.948      6.523
REMARK INTER + INTRA:         -10.021
REMARK INTER:                  -8.798
REMARK INTRA:                  -1.223
REMARK UNBOUND:                -1.380
REMARK SMILES CCCCCCCCCCCCCCCC(=O)[O-]
REMARK SMILES IDX 9 1 10 2 11 3 12 4 13 5 14 6 15 7 16 8 17 9 18 10 8 11 7 12
REMARK SMILES IDX 6 13 5 14 4 15 3 16 2 17 1 18
REMARK H PARENT
REMARK Flexibility Score: inf
ROOT
ATOM      1  C   UNL     1      42.860  -5.488  28.288  1.00  0.00     0.000 C 
ENDROOT
BRANCH   1   2
ATOM      2  C   UNL     1      42.918  -5.385  26.751  1.00  0.00     0.000 C 
BRANCH   2   3
ATOM      3  C   UNL     1      44.249  -5.829  26.112  1.00  0.00     0.000 C 
BRANCH   3   4
ATOM      4  C   UNL     1      45.185  -6.623  27.040  1.00  0.00     0.000 C 
BRANCH   4   5
ATOM      5  C   UNL     1      45.855  -7.815  26.335  1.00  0.00     0.000 C 
BRANCH   5   6
ATOM      6  C   UNL     1      46.591  -7.402  25.049  1.00  0.00     0.006 C 
BRANCH   6   7
ATOM      7  C   UNL     1      48.114  -7.352  25.230  1.00  0.00     0.053 C 
BRANCH   7   8
ATOM      8  C   UNL     1      48.595  -5.935  25.193  1.00  0.00     0.041 C 
ATOM      9  O   UNL     1      47.771  -4.985  25.225  1.00  0.00    -0.550 OA
ATOM     10  O   UNL     1      49.957  -5.665  25.175  1.00  0.00    -0.550 OA
ENDBRANCH   7   8
ENDBRANCH   6   7
ENDBRANCH   5   6
ENDBRANCH   4   5
ENDBRANCH   3   4
ENDBRANCH   2   3
ENDBRANCH   1   2
BRANCH   1  11
ATOM     11  C   UNL     1      42.793  -4.139  29.027  1.00  0.00     0.000 C 
BRANCH  11  12
ATOM     12  C   UNL     1      44.096  -3.335  28.919  1.00  0.00    -0.000 C 
BRANCH  12  13
ATOM     13  C   UNL     1      43.816  -1.828  28.957  1.00  0.00    -0.000 C 
BRANCH  13  14
ATOM     14  C   UNL     1      42.638  -1.512  29.891  1.00  0.00    -0.000 C 
BRANCH  14  15
ATOM     15  C   UNL     1      43.044  -1.474  31.375  1.00  0.00    -0.000 C 
BRANCH  15  16
ATOM     16  C   UNL     1      42.143  -2.292  32.322  1.00  0.00    -0.000 C 
BRANCH  16  17
ATOM     17  C   UNL     1      42.616  -3.732  32.586  1.00  0.00    -0.003 C 
ATOM     18  C   UNL     1      43.578  -3.835  33.769  1.00  0.00     0.004 C 
ENDBRANCH  16  17
ENDBRANCH  15  16
ENDBRANCH  14  15
ENDBRANCH  13  14
ENDBRANCH  12  13
ENDBRANCH  11  12
ENDBRANCH   1  11
TORSDOF 14
ENDMDL
MODEL 9
REMARK VINA RESULT:    -4.743      2.144      6.987
REMARK INTER + INTRA:         -10.005
REMARK INTER:                  -9.080
REMARK INTRA:                  -0.925
REMARK UNBOUND:                -1.380
REMARK SMILES CCCCCCCCCCCCCCCC(=O)[O-]
REMARK SMILES IDX 9 1 10 2 11 3 12 4 13 5 14 6 15 7 16 8 17 9 18 10 8 11 7 12
REMARK SMILES IDX 6 13 5 14 4 15 3 16 2 17 1 18
REMARK H PARENT
REMARK Flexibility Score: inf
ROOT
ATOM      1  C   UNL     1      43.113  -5.464  28.623  1.00  0.00     0.000 C 
ENDROOT
BRANCH   1   2
ATOM      2  C   UNL     1      42.949  -5.348  27.095  1.00  0.00     0.000 C 
BRANCH   2   3
ATOM      3  C   UNL     1      44.133  -5.882  26.265  1.00  0.00     0.000 C 
BRANCH   3   4
ATOM      4  C   UNL     1      45.251  -6.556  27.080  1.00  0.00     0.000 C 
BRANCH   4   5
ATOM      5  C   UNL     1      45.871  -7.764  26.358  1.00  0.00     0.000 C 
BRANCH   5   6
ATOM      6  C   UNL     1      46.612  -7.367  25.071  1.00  0.00     0.006 C 
BRANCH   6   7
ATOM      7  C   UNL     1      48.138  -7.416  25.227  1.00  0.00     0.053 C 
BRANCH   7   8
ATOM      8  C   UNL     1      48.707  -6.032  25.221  1.00  0.00     0.041 C 
ATOM      9  O   UNL     1      47.965  -5.041  25.451  1.00  0.00    -0.550 OA
ATOM     10  O   UNL     1      50.066  -5.841  25.011  1.00  0.00    -0.550 OA
ENDBRANCH   7   8
ENDBRANCH   6   7
ENDBRANCH   5   6
ENDBRANCH   4   5
ENDBRANCH   3   4
ENDBRANCH   2   3
ENDBRANCH   1   2
BRANCH   1  11
ATOM     11  C   UNL     1      43.142  -4.123  29.377  1.00  0.00     0.000 C 
BRANCH  11  12
ATOM     12  C   UNL     1      44.181  -3.144  28.812  1.00  0.00    -0.000 C 
BRANCH  12  13
ATOM     13  C   UNL     1      43.817  -1.696  29.158  1.00  0.00    -0.000 C 
BRANCH  13  14
ATOM     14  C   UNL     1      43.259  -1.596  30.586  1.00  0.00    -0.000 C 
BRANCH  14  15
ATOM     15  C   UNL     1      42.509  -0.278  30.844  1.00  0.00    -0.000 C 
BRANCH  15  16
ATOM     16  C   UNL     1      43.311   0.793  31.613  1.00  0.00    -0.000 C 
BRANCH  16  17
ATOM     17  C   UNL     1      44.012   1.838  30.728  1.00  0.00    -0.003 C 
ATOM     18  C   UNL     1      43.147   3.071  30.463  1.00  0.00     0.004 C 
ENDBRANCH  16  17
ENDBRANCH  15  16
ENDBRANCH  14  15
ENDBRANCH  13  14
ENDBRANCH  12  13
ENDBRANCH  11  12
ENDBRANCH   1  11
TORSDOF 14
ENDMDL
