MODEL 1
REMARK VINA RESULT:    61.075      0.000      0.000
REMARK INTER + INTRA:          85.043
REMARK INTER:                  84.283
REMARK INTRA:                   0.760
REMARK UNBOUND:                 0.760
REMARK SMILES CC[C@H](CC[C@H](C)[C@H]1CC[C@H]2C3=CC[C@H]4C[C@H](O)CC[C@]4(C)[C@H]3CC[C@]12C)C(C)C
REMARK SMILES IDX 5 1 4 2 3 3 2 4 1 5 28 6 29 7 30 8 6 9 7 10 8 11 9 12 26 13
REMARK SMILES IDX 10 14 11 15 25 16 27 17 12 18 24 19 23 20 13 21 21 22 14 23
REMARK SMILES IDX 15 24 20 25 22 26 16 27 19 28 17 29 18 30
REMARK H PARENT 18 31
REMARK Flexibility Score: inf
ROOT
ATOM      1  C   UNL     1     -28.627  30.553  -4.620  1.00  0.00     0.004 C 
ENDROOT
BRANCH   1   2
ATOM      2  C   UNL     1     -28.822  30.744  -6.138  1.00  0.00     0.004 C 
BRANCH   2   3
ATOM      3  C   UNL     1     -28.965  29.428  -6.956  1.00  0.00    -0.009 C 
BRANCH   3   4
ATOM      4  C   UNL     1     -30.435  28.942  -7.108  1.00  0.00     0.000 C 
ATOM      5  C   UNL     1     -30.634  27.474  -6.727  1.00  0.00     0.004 C 
ENDBRANCH   3   4
BRANCH   3   6
ATOM      6  C   UNL     1     -28.178  29.464  -8.314  1.00  0.00    -0.014 C 
ATOM      7  C   UNL     1     -26.711  29.930  -8.191  1.00  0.00     0.007 C 
ATOM      8  C   UNL     1     -28.900  30.345  -9.345  1.00  0.00     0.007 C 
ENDBRANCH   3   6
ENDBRANCH   2   3
ENDBRANCH   1   2
BRANCH   1   9
ATOM      9  C   UNL     1     -28.434  31.891  -3.859  1.00  0.00    -0.011 C 
ATOM     10  C   UNL     1     -27.783  31.611  -2.483  1.00  0.00     0.008 C 
BRANCH   9  11
ATOM     11  C   UNL     1     -29.786  32.664  -3.648  1.00  0.00    -0.002 C 
ATOM     12  C   UNL     1     -30.159  33.530  -4.889  1.00  0.00     0.005 C 
ATOM     13  C   UNL     1     -31.085  31.842  -3.364  1.00  0.00    -0.023 C 
ATOM     14  C   UNL     1     -31.685  33.506  -5.033  1.00  0.00     0.009 C 
ATOM     15  C   UNL     1     -32.152  32.883  -3.728  1.00  0.00     0.021 C 
ATOM     16  C   UNL     1     -31.298  31.390  -1.877  1.00  0.00     0.008 C 
ATOM     17  C   UNL     1     -31.148  30.597  -4.302  1.00  0.00     0.012 C 
ATOM     18  C   UNL     1     -33.538  32.304  -3.575  1.00  0.00    -0.067 C 
ATOM     19  C   UNL     1     -32.656  31.766  -1.214  1.00  0.00     0.009 C 
ATOM     20  C   UNL     1     -33.911  31.928  -2.146  1.00  0.00     0.021 C 
ATOM     21  C   UNL     1     -34.411  32.181  -4.596  1.00  0.00    -0.027 C 
ATOM     22  C   UNL     1     -34.997  30.794  -2.077  1.00  0.00    -0.023 C 
ATOM     23  C   UNL     1     -35.732  31.463  -4.466  1.00  0.00     0.031 C 
ATOM     24  C   UNL     1     -36.173  31.262  -3.001  1.00  0.00     0.002 C 
ATOM     25  C   UNL     1     -35.545  30.659  -0.622  1.00  0.00     0.010 C 
ATOM     26  C   UNL     1     -34.398  29.436  -2.537  1.00  0.00     0.012 C 
ATOM     27  C   UNL     1     -37.408  30.340  -2.921  1.00  0.00     0.036 C 
ATOM     28  C   UNL     1     -36.801  29.772  -0.505  1.00  0.00     0.032 C 
ATOM     29  C   UNL     1     -37.921  30.170  -1.480  1.00  0.00     0.114 C 
BRANCH  29  30
ATOM     30  O   UNL     1     -38.616  31.312  -1.036  1.00  0.00    -0.393 OA
ATOM     31  H   UNL     1     -38.213  32.109  -1.464  1.00  0.00     0.210 HD
ENDBRANCH  29  30
ENDBRANCH   9  11
ENDBRANCH   1   9
TORSDOF 7
ENDMDL
MODEL 2
REMARK VINA RESULT:    61.170      2.566      4.338
REMARK INTER + INTRA:          85.174
REMARK INTER:                  85.287
REMARK INTRA:                  -0.113
REMARK UNBOUND:                 0.760
REMARK SMILES CC[C@H](CC[C@H](C)[C@H]1CC[C@H]2C3=CC[C@H]4C[C@H](O)CC[C@]4(C)[C@H]3CC[C@]12C)C(C)C
REMARK SMILES IDX 5 1 4 2 3 3 2 4 1 5 28 6 29 7 30 8 6 9 7 10 8 11 9 12 26 13
REMARK SMILES IDX 10 14 11 15 25 16 27 17 12 18 24 19 23 20 13 21 21 22 14 23
REMARK SMILES IDX 15 24 20 25 22 26 16 27 19 28 17 29 18 30
REMARK H PARENT 18 31
REMARK Flexibility Score: inf
ROOT
ATOM      1  C   UNL     1     -31.010  33.375  -4.301  1.00  0.00     0.004 C 
ENDROOT
BRANCH   1   2
ATOM      2  C   UNL     1     -30.050  33.670  -5.471  1.00  0.00     0.004 C 
BRANCH   2   3
ATOM      3  C   UNL     1     -29.572  35.148  -5.576  1.00  0.00    -0.009 C 
BRANCH   3   4
ATOM      4  C   UNL     1     -28.061  35.342  -5.266  1.00  0.00     0.000 C 
ATOM      5  C   UNL     1     -27.782  35.732  -3.813  1.00  0.00     0.004 C 
ENDBRANCH   3   4
BRANCH   3   6
ATOM      6  C   UNL     1     -30.029  35.843  -6.908  1.00  0.00    -0.014 C 
ATOM      7  C   UNL     1     -31.544  36.125  -6.996  1.00  0.00     0.007 C 
ATOM      8  C   UNL     1     -29.598  35.021  -8.133  1.00  0.00     0.007 C 
ENDBRANCH   3   6
ENDBRANCH   2   3
ENDBRANCH   1   2
BRANCH   1   9
ATOM      9  C   UNL     1     -30.320  32.645  -3.119  1.00  0.00    -0.011 C 
ATOM     10  C   UNL     1     -29.109  31.840  -3.648  1.00  0.00     0.008 C 
BRANCH   9  11
ATOM     11  C   UNL     1     -31.296  31.676  -2.356  1.00  0.00    -0.002 C 
ATOM     12  C   UNL     1     -31.312  31.959  -0.824  1.00  0.00     0.005 C 
ATOM     13  C   UNL     1     -32.809  31.671  -2.750  1.00  0.00    -0.023 C 
ATOM     14  C   UNL     1     -32.740  31.713  -0.320  1.00  0.00     0.009 C 
ATOM     15  C   UNL     1     -33.416  31.029  -1.496  1.00  0.00     0.021 C 
ATOM     16  C   UNL     1     -33.187  30.806  -4.003  1.00  0.00     0.008 C 
ATOM     17  C   UNL     1     -33.316  33.132  -2.954  1.00  0.00     0.012 C 
ATOM     18  C   UNL     1     -34.918  30.945  -1.612  1.00  0.00    -0.067 C 
ATOM     19  C   UNL     1     -34.318  29.753  -3.815  1.00  0.00     0.009 C 
ATOM     20  C   UNL     1     -35.418  30.037  -2.728  1.00  0.00     0.021 C 
ATOM     21  C   UNL     1     -35.766  31.568  -0.765  1.00  0.00    -0.027 C 
ATOM     22  C   UNL     1     -36.844  30.438  -3.250  1.00  0.00    -0.023 C 
ATOM     23  C   UNL     1     -37.259  31.605  -0.979  1.00  0.00     0.031 C 
ATOM     24  C   UNL     1     -37.757  30.544  -1.981  1.00  0.00     0.002 C 
ATOM     25  C   UNL     1     -37.418  29.316  -4.171  1.00  0.00     0.010 C 
ATOM     26  C   UNL     1     -36.781  31.777  -4.036  1.00  0.00     0.012 C 
ATOM     27  C   UNL     1     -39.245  30.767  -2.324  1.00  0.00     0.036 C 
ATOM     28  C   UNL     1     -38.912  29.485  -4.509  1.00  0.00     0.032 C 
ATOM     29  C   UNL     1     -39.799  29.685  -3.269  1.00  0.00     0.114 C 
BRANCH  29  30
ATOM     30  O   UNL     1     -40.030  28.472  -2.593  1.00  0.00    -0.393 OA
ATOM     31  H   UNL     1     -39.415  27.788  -2.959  1.00  0.00     0.210 HD
ENDBRANCH  29  30
ENDBRANCH   9  11
ENDBRANCH   1   9
TORSDOF 7
ENDMDL
MODEL 3
REMARK VINA RESULT:    63.323      6.241     12.533
REMARK INTER + INTRA:          88.145
REMARK INTER:                  88.703
REMARK INTRA:                  -0.558
REMARK UNBOUND:                 0.760
REMARK SMILES CC[C@H](CC[C@H](C)[C@H]1CC[C@H]2C3=CC[C@H]4C[C@H](O)CC[C@]4(C)[C@H]3CC[C@]12C)C(C)C
REMARK SMILES IDX 5 1 4 2 3 3 2 4 1 5 28 6 29 7 30 8 6 9 7 10 8 11 9 12 26 13
REMARK SMILES IDX 10 14 11 15 25 16 27 17 12 18 24 19 23 20 13 21 21 22 14 23
REMARK SMILES IDX 15 24 20 25 22 26 16 27 19 28 17 29 18 30
REMARK H PARENT 18 31
REMARK Flexibility Score: inf
ROOT
ATOM      1  C   UNL     1     -40.506  24.175   3.858  1.00  0.00     0.004 C 
ENDROOT
BRANCH   1   2
ATOM      2  C   UNL     1     -41.759  23.924   4.722  1.00  0.00     0.004 C 
BRANCH   2   3
ATOM      3  C   UNL     1     -41.495  23.812   6.252  1.00  0.00    -0.009 C 
BRANCH   3   4
ATOM      4  C   UNL     1     -41.616  22.363   6.804  1.00  0.00     0.000 C 
ATOM      5  C   UNL     1     -42.103  22.302   8.253  1.00  0.00     0.004 C 
ENDBRANCH   3   4
BRANCH   3   6
ATOM      6  C   UNL     1     -40.177  24.540   6.698  1.00  0.00    -0.014 C 
ATOM      7  C   UNL     1     -39.088  23.603   7.263  1.00  0.00     0.007 C 
ATOM      8  C   UNL     1     -40.478  25.640   7.728  1.00  0.00     0.007 C 
ENDBRANCH   3   6
ENDBRANCH   2   3
ENDBRANCH   1   2
BRANCH   1   9
ATOM      9  C   UNL     1     -40.548  25.532   3.107  1.00  0.00    -0.011 C 
ATOM     10  C   UNL     1     -42.014  26.016   3.004  1.00  0.00     0.008 C 
BRANCH   9  11
ATOM     11  C   UNL     1     -39.927  25.442   1.666  1.00  0.00    -0.002 C 
ATOM     12  C   UNL     1     -40.961  24.926   0.620  1.00  0.00     0.005 C 
ATOM     13  C   UNL     1     -39.354  26.742   1.012  1.00  0.00    -0.023 C 
ATOM     14  C   UNL     1     -40.685  25.649  -0.704  1.00  0.00     0.009 C 
ATOM     15  C   UNL     1     -39.346  26.325  -0.464  1.00  0.00     0.021 C 
ATOM     16  C   UNL     1     -37.898  27.138   1.441  1.00  0.00     0.008 C 
ATOM     17  C   UNL     1     -40.318  27.941   1.269  1.00  0.00     0.012 C 
ATOM     18  C   UNL     1     -38.858  27.456  -1.336  1.00  0.00    -0.067 C 
ATOM     19  C   UNL     1     -36.868  27.374   0.298  1.00  0.00     0.009 C 
ATOM     20  C   UNL     1     -37.410  27.862  -1.095  1.00  0.00     0.021 C 
ATOM     21  C   UNL     1     -39.609  28.031  -2.299  1.00  0.00    -0.027 C 
ATOM     22  C   UNL     1     -37.122  29.357  -1.484  1.00  0.00    -0.023 C 
ATOM     23  C   UNL     1     -39.171  29.258  -3.060  1.00  0.00     0.031 C 
ATOM     24  C   UNL     1     -37.658  29.537  -2.945  1.00  0.00     0.002 C 
ATOM     25  C   UNL     1     -35.584  29.626  -1.493  1.00  0.00     0.010 C 
ATOM     26  C   UNL     1     -37.815  30.324  -0.485  1.00  0.00     0.012 C 
ATOM     27  C   UNL     1     -37.305  30.910  -3.554  1.00  0.00     0.036 C 
ATOM     28  C   UNL     1     -35.188  30.975  -2.125  1.00  0.00     0.032 C 
ATOM     29  C   UNL     1     -35.792  31.195  -3.522  1.00  0.00     0.114 C 
BRANCH  29  30
ATOM     30  O   UNL     1     -35.103  30.465  -4.509  1.00  0.00    -0.393 OA
ATOM     31  H   UNL     1     -34.990  29.535  -4.187  1.00  0.00     0.210 HD
ENDBRANCH  29  30
ENDBRANCH   9  11
ENDBRANCH   1   9
TORSDOF 7
ENDMDL
