MODEL 1
REMARK VINA RESULT:    -6.531      0.000      0.000
REMARK INTER + INTRA:          -8.416
REMARK INTER:                  -8.059
REMARK INTRA:                  -0.358
REMARK UNBOUND:                -0.358
REMARK SMILES Oc1cc(O)c2cc(O)c(-c3cc(O)c(O)c(O)c3)[o+]c2c1
REMARK SMILES IDX 10 1 20 2 21 3 22 4 2 5 3 6 4 7 6 8 7 9 8 10 11 11 12 12
REMARK SMILES IDX 13 13 19 14 15 15 17 16 14 17 16 19 18 21 9 23 1 25 5 27
REMARK H PARENT 14 18 16 20 18 22 9 24 1 26 5 28
REMARK Flexibility Score: inf
ROOT
ATOM      1  C   UNL     1       9.211  52.612  20.460  1.00  0.00     0.402 A 
ATOM      2  O   UNL     1       9.626  51.937  21.528  1.00  0.00    -0.202 OA
ATOM      3  C   UNL     1      10.908  51.779  21.840  1.00  0.00     0.368 A 
ATOM      4  C   UNL     1      11.245  51.050  22.983  1.00  0.00     0.162 A 
ATOM      5  C   UNL     1      12.583  50.866  23.333  1.00  0.00     0.128 A 
ATOM      6  C   UNL     1      13.594  51.414  22.535  1.00  0.00     0.093 A 
ATOM      7  C   UNL     1      13.282  52.149  21.384  1.00  0.00     0.136 A 
ATOM      8  C   UNL     1      11.922  52.341  21.027  1.00  0.00     0.125 A 
ATOM      9  C   UNL     1      11.516  53.074  19.900  1.00  0.00     0.078 A 
ATOM     10  C   UNL     1      10.156  53.223  19.614  1.00  0.00     0.223 A 
ENDROOT
BRANCH   1  11
ATOM     11  C   UNL     1       7.754  52.710  20.214  1.00  0.00     0.091 A 
ATOM     12  C   UNL     1       7.158  51.869  19.262  1.00  0.00     0.068 A 
ATOM     13  C   UNL     1       5.787  51.953  18.995  1.00  0.00     0.162 A 
ATOM     14  C   UNL     1       6.963  53.666  20.874  1.00  0.00     0.068 A 
ATOM     15  C   UNL     1       4.996  52.896  19.672  1.00  0.00     0.200 A 
ATOM     16  C   UNL     1       5.589  53.758  20.611  1.00  0.00     0.162 A 
BRANCH  13  17
ATOM     17  O   UNL     1       5.229  51.089  18.052  1.00  0.00    -0.504 OA
ATOM     18  H   UNL     1       4.404  51.334  17.520  1.00  0.00     0.293 HD
ENDBRANCH  13  17
BRANCH  15  19
ATOM     19  O   UNL     1       3.629  52.971  19.402  1.00  0.00    -0.502 OA
ATOM     20  H   UNL     1       3.257  53.543  18.653  1.00  0.00     0.293 HD
ENDBRANCH  15  19
BRANCH  16  21
ATOM     21  O   UNL     1       4.813  54.707  21.276  1.00  0.00    -0.504 OA
ATOM     22  H   UNL     1       4.813  54.779  22.286  1.00  0.00     0.293 HD
ENDBRANCH  16  21
ENDBRANCH   1  11
BRANCH  10  23
ATOM     23  O   UNL     1       9.750  53.992  18.523  1.00  0.00    -0.500 OA
ATOM     24  H   UNL     1      10.218  53.933  17.626  1.00  0.00     0.294 HD
ENDBRANCH  10  23
BRANCH   5  25
ATOM     25  O   UNL     1      12.900  50.135  24.477  1.00  0.00    -0.507 OA
ATOM     26  H   UNL     1      12.488  50.353  25.376  1.00  0.00     0.293 HD
ENDBRANCH   5  25
BRANCH   7  27
ATOM     27  O   UNL     1      14.349  52.661  20.639  1.00  0.00    -0.507 OA
ATOM     28  H   UNL     1      14.791  52.177  19.870  1.00  0.00     0.293 HD
ENDBRANCH   7  27
TORSDOF 7
ENDMDL
MODEL 2
REMARK VINA RESULT:    -6.501      1.288      2.587
REMARK INTER + INTRA:          -8.379
REMARK INTER:                  -8.121
REMARK INTRA:                  -0.258
REMARK UNBOUND:                -0.358
REMARK SMILES Oc1cc(O)c2cc(O)c(-c3cc(O)c(O)c(O)c3)[o+]c2c1
REMARK SMILES IDX 10 1 20 2 21 3 22 4 2 5 3 6 4 7 6 8 7 9 8 10 11 11 12 12
REMARK SMILES IDX 13 13 19 14 15 15 17 16 14 17 16 19 18 21 9 23 1 25 5 27
REMARK H PARENT 14 18 16 20 18 22 9 24 1 26 5 28
REMARK Flexibility Score: inf
ROOT
ATOM      1  C   UNL     1       8.429  52.391  21.658  1.00  0.00     0.402 A 
ATOM      2  O   UNL     1       9.601  52.313  21.036  1.00  0.00    -0.202 OA
ATOM      3  C   UNL     1      10.750  52.094  21.667  1.00  0.00     0.368 A 
ATOM      4  C   UNL     1      11.932  52.031  20.925  1.00  0.00     0.162 A 
ATOM      5  C   UNL     1      13.153  51.804  21.562  1.00  0.00     0.128 A 
ATOM      6  C   UNL     1      13.194  51.641  22.951  1.00  0.00     0.093 A 
ATOM      7  C   UNL     1      12.024  51.700  23.717  1.00  0.00     0.136 A 
ATOM      8  C   UNL     1      10.780  51.926  23.073  1.00  0.00     0.125 A 
ATOM      9  C   UNL     1       9.555  51.988  23.757  1.00  0.00     0.078 A 
ATOM     10  C   UNL     1       8.368  52.211  23.053  1.00  0.00     0.223 A 
ENDROOT
BRANCH   1  11
ATOM     11  C   UNL     1       7.219  52.649  20.844  1.00  0.00     0.091 A 
ATOM     12  C   UNL     1       6.842  51.726  19.857  1.00  0.00     0.068 A 
ATOM     13  C   UNL     1       5.715  51.954  19.059  1.00  0.00     0.162 A 
ATOM     14  C   UNL     1       6.471  53.829  20.999  1.00  0.00     0.068 A 
ATOM     15  C   UNL     1       4.958  53.124  19.232  1.00  0.00     0.200 A 
ATOM     16  C   UNL     1       5.341  54.066  20.202  1.00  0.00     0.162 A 
BRANCH  13  17
ATOM     17  O   UNL     1       5.365  51.003  18.100  1.00  0.00    -0.504 OA
ATOM     18  H   UNL     1       4.539  50.425  18.192  1.00  0.00     0.293 HD
ENDBRANCH  13  17
BRANCH  15  19
ATOM     19  O   UNL     1       3.833  53.342  18.434  1.00  0.00    -0.502 OA
ATOM     20  H   UNL     1       3.097  52.652  18.340  1.00  0.00     0.293 HD
ENDBRANCH  15  19
BRANCH  16  21
ATOM     21  O   UNL     1       4.603  55.237  20.369  1.00  0.00    -0.504 OA
ATOM     22  H   UNL     1       4.095  55.427  21.225  1.00  0.00     0.293 HD
ENDBRANCH  16  21
ENDBRANCH   1  11
BRANCH  10  23
ATOM     23  O   UNL     1       7.146  52.222  23.725  1.00  0.00    -0.500 OA
ATOM     24  H   UNL     1       7.046  52.648  24.640  1.00  0.00     0.294 HD
ENDBRANCH  10  23
BRANCH   5  25
ATOM     25  O   UNL     1      14.322  51.744  20.806  1.00  0.00    -0.507 OA
ATOM     26  H   UNL     1      14.308  51.861  19.800  1.00  0.00     0.293 HD
ENDBRANCH   5  25
BRANCH   7  27
ATOM     27  O   UNL     1      12.149  51.530  25.100  1.00  0.00    -0.507 OA
ATOM     28  H   UNL     1      12.966  51.790  25.634  1.00  0.00     0.293 HD
ENDBRANCH   7  27
TORSDOF 7
ENDMDL
MODEL 3
REMARK VINA RESULT:    -6.478      1.305      3.154
REMARK INTER + INTRA:          -8.351
REMARK INTER:                  -8.124
REMARK INTRA:                  -0.227
REMARK UNBOUND:                -0.358
REMARK SMILES Oc1cc(O)c2cc(O)c(-c3cc(O)c(O)c(O)c3)[o+]c2c1
REMARK SMILES IDX 10 1 20 2 21 3 22 4 2 5 3 6 4 7 6 8 7 9 8 10 11 11 12 12
REMARK SMILES IDX 13 13 19 14 15 15 17 16 14 17 16 19 18 21 9 23 1 25 5 27
REMARK H PARENT 14 18 16 20 18 22 9 24 1 26 5 28
REMARK Flexibility Score: inf
ROOT
ATOM      1  C   UNL     1       8.350  52.399  21.599  1.00  0.00     0.402 A 
ATOM      2  O   UNL     1       9.543  52.375  21.013  1.00  0.00    -0.202 OA
ATOM      3  C   UNL     1      10.677  52.159  21.673  1.00  0.00     0.368 A 
ATOM      4  C   UNL     1      11.884  52.155  20.969  1.00  0.00     0.162 A 
ATOM      5  C   UNL     1      13.088  51.932  21.636  1.00  0.00     0.128 A 
ATOM      6  C   UNL     1      13.089  51.714  23.018  1.00  0.00     0.093 A 
ATOM      7  C   UNL     1      11.894  51.713  23.747  1.00  0.00     0.136 A 
ATOM      8  C   UNL     1      10.666  51.935  23.071  1.00  0.00     0.125 A 
ATOM      9  C   UNL     1       9.418  51.939  23.716  1.00  0.00     0.078 A 
ATOM     10  C   UNL     1       8.250  52.161  22.983  1.00  0.00     0.223 A 
ENDROOT
BRANCH   1  11
ATOM     11  C   UNL     1       7.161  52.661  20.756  1.00  0.00     0.091 A 
ATOM     12  C   UNL     1       6.395  53.814  20.983  1.00  0.00     0.068 A 
ATOM     13  C   UNL     1       5.255  54.076  20.215  1.00  0.00     0.162 A 
ATOM     14  C   UNL     1       6.748  51.748  19.769  1.00  0.00     0.068 A 
ATOM     15  C   UNL     1       4.858  53.172  19.216  1.00  0.00     0.200 A 
ATOM     16  C   UNL     1       5.606  52.003  18.997  1.00  0.00     0.162 A 
BRANCH  13  17
ATOM     17  O   UNL     1       4.529  55.242  20.461  1.00  0.00    -0.504 OA
ATOM     18  H   UNL     1       3.790  55.280  21.152  1.00  0.00     0.293 HD
ENDBRANCH  13  17
BRANCH  15  19
ATOM     19  O   UNL     1       3.722  53.443  18.452  1.00  0.00    -0.502 OA
ATOM     20  H   UNL     1       2.854  53.758  18.869  1.00  0.00     0.293 HD
ENDBRANCH  15  19
BRANCH  16  21
ATOM     21  O   UNL     1       5.210  51.093  18.017  1.00  0.00    -0.504 OA
ATOM     22  H   UNL     1       5.276  51.313  17.031  1.00  0.00     0.293 HD
ENDBRANCH  16  21
ENDBRANCH   1  11
BRANCH  10  23
ATOM     23  O   UNL     1       7.007  52.116  23.614  1.00  0.00    -0.500 OA
ATOM     24  H   UNL     1       6.719  51.316  24.166  1.00  0.00     0.294 HD
ENDBRANCH  10  23
BRANCH   5  25
ATOM     25  O   UNL     1      14.283  51.932  20.917  1.00  0.00    -0.507 OA
ATOM     26  H   UNL     1      15.000  51.236  21.082  1.00  0.00     0.293 HD
ENDBRANCH   5  25
BRANCH   7  27
ATOM     27  O   UNL     1      11.979  51.490  25.125  1.00  0.00    -0.507 OA
ATOM     28  H   UNL     1      12.468  50.714  25.547  1.00  0.00     0.293 HD
ENDBRANCH   7  27
TORSDOF 7
ENDMDL
MODEL 4
REMARK VINA RESULT:    -6.036      2.378      3.684
REMARK INTER + INTRA:          -7.805
REMARK INTER:                  -7.800
REMARK INTRA:                  -0.005
REMARK UNBOUND:                -0.358
REMARK SMILES Oc1cc(O)c2cc(O)c(-c3cc(O)c(O)c(O)c3)[o+]c2c1
REMARK SMILES IDX 10 1 20 2 21 3 22 4 2 5 3 6 4 7 6 8 7 9 8 10 11 11 12 12
REMARK SMILES IDX 13 13 19 14 15 15 17 16 14 17 16 19 18 21 9 23 1 25 5 27
REMARK H PARENT 14 18 16 20 18 22 9 24 1 26 5 28
REMARK Flexibility Score: inf
ROOT
ATOM      1  C   UNL     1       7.251  52.855  19.287  1.00  0.00     0.402 A 
ATOM      2  O   UNL     1       6.921  52.603  20.550  1.00  0.00    -0.202 OA
ATOM      3  C   UNL     1       7.815  52.389  21.510  1.00  0.00     0.368 A 
ATOM      4  C   UNL     1       7.369  52.129  22.809  1.00  0.00     0.162 A 
ATOM      5  C   UNL     1       8.286  51.900  23.836  1.00  0.00     0.128 A 
ATOM      6  C   UNL     1       9.658  51.928  23.564  1.00  0.00     0.093 A 
ATOM      7  C   UNL     1      10.130  52.187  22.271  1.00  0.00     0.136 A 
ATOM      8  C   UNL     1       9.201  52.424  21.225  1.00  0.00     0.125 A 
ATOM      9  C   UNL     1       9.582  52.704  19.902  1.00  0.00     0.078 A 
ATOM     10  C   UNL     1       8.609  52.931  18.926  1.00  0.00     0.223 A 
ENDROOT
BRANCH   1  11
ATOM     11  C   UNL     1       6.161  53.065  18.307  1.00  0.00     0.091 A 
ATOM     12  C   UNL     1       5.029  53.805  18.682  1.00  0.00     0.068 A 
ATOM     13  C   UNL     1       3.976  54.003  17.783  1.00  0.00     0.162 A 
ATOM     14  C   UNL     1       6.209  52.490  17.025  1.00  0.00     0.068 A 
ATOM     15  C   UNL     1       4.038  53.445  16.495  1.00  0.00     0.200 A 
ATOM     16  C   UNL     1       5.156  52.682  16.119  1.00  0.00     0.162 A 
BRANCH  13  17
ATOM     17  O   UNL     1       2.875  54.758  18.189  1.00  0.00    -0.504 OA
ATOM     18  H   UNL     1       1.958  54.635  17.780  1.00  0.00     0.293 HD
ENDBRANCH  13  17
BRANCH  15  19
ATOM     19  O   UNL     1       2.983  53.650  15.604  1.00  0.00    -0.502 OA
ATOM     20  H   UNL     1       2.498  54.536  15.537  1.00  0.00     0.293 HD
ENDBRANCH  15  19
BRANCH  16  21
ATOM     21  O   UNL     1       5.218  52.113  14.847  1.00  0.00    -0.504 OA
ATOM     22  H   UNL     1       5.832  52.479  14.130  1.00  0.00     0.293 HD
ENDBRANCH  16  21
ENDBRANCH   1  11
BRANCH  10  23
ATOM     23  O   UNL     1       8.987  53.258  17.623  1.00  0.00    -0.500 OA
ATOM     24  H   UNL     1       8.304  53.513  16.919  1.00  0.00     0.294 HD
ENDBRANCH  10  23
BRANCH   5  25
ATOM     25  O   UNL     1       7.823  51.642  25.125  1.00  0.00    -0.507 OA
ATOM     26  H   UNL     1       6.836  51.530  25.321  1.00  0.00     0.293 HD
ENDBRANCH   5  25
BRANCH   7  27
ATOM     27  O   UNL     1      11.515  52.195  22.081  1.00  0.00    -0.507 OA
ATOM     28  H   UNL     1      11.970  52.041  21.193  1.00  0.00     0.293 HD
ENDBRANCH   7  27
TORSDOF 7
ENDMDL
MODEL 5
REMARK VINA RESULT:    -5.955      1.000      2.549
REMARK INTER + INTRA:          -7.705
REMARK INTER:                  -7.337
REMARK INTRA:                  -0.369
REMARK UNBOUND:                -0.358
REMARK SMILES Oc1cc(O)c2cc(O)c(-c3cc(O)c(O)c(O)c3)[o+]c2c1
REMARK SMILES IDX 10 1 20 2 21 3 22 4 2 5 3 6 4 7 6 8 7 9 8 10 11 11 12 12
REMARK SMILES IDX 13 13 19 14 15 15 17 16 14 17 16 19 18 21 9 23 1 25 5 27
REMARK H PARENT 14 18 16 20 18 22 9 24 1 26 5 28
REMARK Flexibility Score: inf
ROOT
ATOM      1  C   UNL     1       9.051  52.259  21.031  1.00  0.00     0.402 A 
ATOM      2  O   UNL     1      10.078  52.622  20.269  1.00  0.00    -0.202 OA
ATOM      3  C   UNL     1      11.347  52.418  20.609  1.00  0.00     0.368 A 
ATOM      4  C   UNL     1      12.359  52.838  19.742  1.00  0.00     0.162 A 
ATOM      5  C   UNL     1      13.700  52.639  20.075  1.00  0.00     0.128 A 
ATOM      6  C   UNL     1      14.033  52.017  21.283  1.00  0.00     0.093 A 
ATOM      7  C   UNL     1      13.037  51.587  22.169  1.00  0.00     0.136 A 
ATOM      8  C   UNL     1      11.673  51.785  21.833  1.00  0.00     0.125 A 
ATOM      9  C   UNL     1      10.608  51.375  22.652  1.00  0.00     0.078 A 
ATOM     10  C   UNL     1       9.288  51.600  22.252  1.00  0.00     0.223 A 
ENDROOT
BRANCH   1  11
ATOM     11  C   UNL     1       7.682  52.551  20.547  1.00  0.00     0.091 A 
ATOM     12  C   UNL     1       7.118  51.744  19.547  1.00  0.00     0.068 A 
ATOM     13  C   UNL     1       5.835  52.008  19.055  1.00  0.00     0.162 A 
ATOM     14  C   UNL     1       6.956  53.655  21.026  1.00  0.00     0.068 A 
ATOM     15  C   UNL     1       5.104  53.100  19.553  1.00  0.00     0.200 A 
ATOM     16  C   UNL     1       5.670  53.927  20.537  1.00  0.00     0.162 A 
BRANCH  13  17
ATOM     17  O   UNL     1       5.304  51.173  18.072  1.00  0.00    -0.504 OA
ATOM     18  H   UNL     1       5.095  50.198  18.249  1.00  0.00     0.293 HD
ENDBRANCH  13  17
BRANCH  15  19
ATOM     19  O   UNL     1       3.823  53.354  19.059  1.00  0.00    -0.502 OA
ATOM     20  H   UNL     1       3.646  53.515  18.075  1.00  0.00     0.293 HD
ENDBRANCH  15  19
BRANCH  16  21
ATOM     21  O   UNL     1       4.956  55.022  21.025  1.00  0.00    -0.504 OA
ATOM     22  H   UNL     1       5.323  55.609  21.763  1.00  0.00     0.293 HD
ENDBRANCH  16  21
ENDBRANCH   1  11
BRANCH  10  23
ATOM     23  O   UNL     1       8.231  51.150  23.042  1.00  0.00    -0.500 OA
ATOM     24  H   UNL     1       8.078  51.504  23.980  1.00  0.00     0.294 HD
ENDBRANCH  10  23
BRANCH   5  25
ATOM     25  O   UNL     1      14.696  53.064  19.197  1.00  0.00    -0.507 OA
ATOM     26  H   UNL     1      15.606  53.356  19.531  1.00  0.00     0.293 HD
ENDBRANCH   5  25
BRANCH   7  27
ATOM     27  O   UNL     1      13.452  50.977  23.357  1.00  0.00    -0.507 OA
ATOM     28  H   UNL     1      12.830  50.693  24.099  1.00  0.00     0.293 HD
ENDBRANCH   7  27
TORSDOF 7
ENDMDL
MODEL 6
REMARK VINA RESULT:    -5.905      1.520      7.434
REMARK INTER + INTRA:          -7.644
REMARK INTER:                  -7.511
REMARK INTRA:                  -0.133
REMARK UNBOUND:                -0.358
REMARK SMILES Oc1cc(O)c2cc(O)c(-c3cc(O)c(O)c(O)c3)[o+]c2c1
REMARK SMILES IDX 10 1 20 2 21 3 22 4 2 5 3 6 4 7 6 8 7 9 8 10 11 11 12 12
REMARK SMILES IDX 13 13 19 14 15 15 17 16 14 17 16 19 18 21 9 23 1 25 5 27
REMARK H PARENT 14 18 16 20 18 22 9 24 1 26 5 28
REMARK Flexibility Score: inf
ROOT
ATOM      1  C   UNL     1       8.843  52.637  20.314  1.00  0.00     0.402 A 
ATOM      2  O   UNL     1       8.407  52.740  19.062  1.00  0.00    -0.202 OA
ATOM      3  C   UNL     1       7.123  52.876  18.745  1.00  0.00     0.368 A 
ATOM      4  C   UNL     1       6.762  52.974  17.399  1.00  0.00     0.162 A 
ATOM      5  C   UNL     1       5.421  53.116  17.038  1.00  0.00     0.128 A 
ATOM      6  C   UNL     1       4.433  53.157  18.028  1.00  0.00     0.093 A 
ATOM      7  C   UNL     1       4.770  53.061  19.383  1.00  0.00     0.136 A 
ATOM      8  C   UNL     1       6.132  52.921  19.755  1.00  0.00     0.125 A 
ATOM      9  C   UNL     1       6.563  52.830  21.089  1.00  0.00     0.078 A 
ATOM     10  C   UNL     1       7.924  52.697  21.378  1.00  0.00     0.223 A 
ENDROOT
BRANCH   1  11
ATOM     11  C   UNL     1      10.299  52.479  20.538  1.00  0.00     0.091 A 
ATOM     12  C   UNL     1      11.192  53.364  19.915  1.00  0.00     0.068 A 
ATOM     13  C   UNL     1      12.573  53.227  20.092  1.00  0.00     0.162 A 
ATOM     14  C   UNL     1      10.810  51.425  21.315  1.00  0.00     0.068 A 
ATOM     15  C   UNL     1      13.078  52.185  20.888  1.00  0.00     0.200 A 
ATOM     16  C   UNL     1      12.192  51.280  21.496  1.00  0.00     0.162 A 
BRANCH  13  17
ATOM     17  O   UNL     1      13.427  54.137  19.469  1.00  0.00    -0.504 OA
ATOM     18  H   UNL     1      14.321  53.859  19.084  1.00  0.00     0.293 HD
ENDBRANCH  13  17
BRANCH  15  19
ATOM     19  O   UNL     1      14.457  52.057  21.062  1.00  0.00    -0.502 OA
ATOM     20  H   UNL     1      15.026  51.477  20.457  1.00  0.00     0.293 HD
ENDBRANCH  15  19
BRANCH  16  21
ATOM     21  O   UNL     1      12.688  50.234  22.275  1.00  0.00    -0.504 OA
ATOM     22  H   UNL     1      12.294  50.014  23.182  1.00  0.00     0.293 HD
ENDBRANCH  16  21
ENDBRANCH   1  11
BRANCH  10  23
ATOM     23  O   UNL     1       8.358  52.657  22.703  1.00  0.00    -0.500 OA
ATOM     24  H   UNL     1       7.761  52.950  23.468  1.00  0.00     0.294 HD
ENDBRANCH  10  23
BRANCH   5  25
ATOM     25  O   UNL     1       5.080  53.212  15.690  1.00  0.00    -0.507 OA
ATOM     26  H   UNL     1       5.504  53.905  15.084  1.00  0.00     0.293 HD
ENDBRANCH   5  25
BRANCH   7  27
ATOM     27  O   UNL     1       3.724  53.108  20.311  1.00  0.00    -0.507 OA
ATOM     28  H   UNL     1       2.791  52.764  20.136  1.00  0.00     0.293 HD
ENDBRANCH   7  27
TORSDOF 7
ENDMDL
MODEL 7
REMARK VINA RESULT:    -5.837      1.741      7.075
REMARK INTER + INTRA:          -7.559
REMARK INTER:                  -7.334
REMARK INTRA:                  -0.225
REMARK UNBOUND:                -0.358
REMARK SMILES Oc1cc(O)c2cc(O)c(-c3cc(O)c(O)c(O)c3)[o+]c2c1
REMARK SMILES IDX 10 1 20 2 21 3 22 4 2 5 3 6 4 7 6 8 7 9 8 10 11 11 12 12
REMARK SMILES IDX 13 13 19 14 15 15 17 16 14 17 16 19 18 21 9 23 1 25 5 27
REMARK H PARENT 14 18 16 20 18 22 9 24 1 26 5 28
REMARK Flexibility Score: inf
ROOT
ATOM      1  C   UNL     1       9.651  52.747  19.006  1.00  0.00     0.402 A 
ATOM      2  O   UNL     1       8.506  52.727  19.681  1.00  0.00    -0.202 OA
ATOM      3  C   UNL     1       7.315  52.846  19.104  1.00  0.00     0.368 A 
ATOM      4  C   UNL     1       6.167  52.817  19.899  1.00  0.00     0.162 A 
ATOM      5  C   UNL     1       4.904  52.942  19.319  1.00  0.00     0.128 A 
ATOM      6  C   UNL     1       4.785  53.100  17.934  1.00  0.00     0.093 A 
ATOM      7  C   UNL     1       5.921  53.132  17.115  1.00  0.00     0.136 A 
ATOM      8  C   UNL     1       7.207  53.002  17.701  1.00  0.00     0.125 A 
ATOM      9  C   UNL     1       8.398  53.010  16.957  1.00  0.00     0.078 A 
ATOM     10  C   UNL     1       9.629  52.872  17.604  1.00  0.00     0.223 A 
ENDROOT
BRANCH   1  11
ATOM     11  C   UNL     1      10.915  52.614  19.766  1.00  0.00     0.091 A 
ATOM     12  C   UNL     1      11.126  51.478  20.562  1.00  0.00     0.068 A 
ATOM     13  C   UNL     1      12.302  51.336  21.306  1.00  0.00     0.162 A 
ATOM     14  C   UNL     1      11.886  53.631  19.754  1.00  0.00     0.068 A 
ATOM     15  C   UNL     1      13.279  52.344  21.274  1.00  0.00     0.200 A 
ATOM     16  C   UNL     1      13.066  53.497  20.498  1.00  0.00     0.162 A 
BRANCH  13  17
ATOM     17  O   UNL     1      12.480  50.184  22.073  1.00  0.00    -0.504 OA
ATOM     18  H   UNL     1      12.188  49.271  21.747  1.00  0.00     0.293 HD
ENDBRANCH  13  17
BRANCH  15  19
ATOM     19  O   UNL     1      14.451  52.193  22.018  1.00  0.00    -0.502 OA
ATOM     20  H   UNL     1      14.620  51.381  22.599  1.00  0.00     0.293 HD
ENDBRANCH  15  19
BRANCH  16  21
ATOM     21  O   UNL     1      14.026  54.509  20.473  1.00  0.00    -0.504 OA
ATOM     22  H   UNL     1      14.965  54.342  20.133  1.00  0.00     0.293 HD
ENDBRANCH  16  21
ENDBRANCH   1  11
BRANCH  10  23
ATOM     23  O   UNL     1      10.810  52.830  16.862  1.00  0.00    -0.500 OA
ATOM     24  H   UNL     1      11.526  52.135  17.040  1.00  0.00     0.294 HD
ENDBRANCH  10  23
BRANCH   5  25
ATOM     25  O   UNL     1       3.770  52.910  20.129  1.00  0.00    -0.507 OA
ATOM     26  H   UNL     1       3.010  53.568  20.003  1.00  0.00     0.293 HD
ENDBRANCH   5  25
BRANCH   7  27
ATOM     27  O   UNL     1       5.718  53.296  15.741  1.00  0.00    -0.507 OA
ATOM     28  H   UNL     1       4.820  53.228  15.285  1.00  0.00     0.293 HD
ENDBRANCH   7  27
TORSDOF 7
ENDMDL
MODEL 8
REMARK VINA RESULT:    -5.730      3.040      5.364
REMARK INTER + INTRA:          -7.428
REMARK INTER:                  -7.043
REMARK INTRA:                  -0.385
REMARK UNBOUND:                -0.358
REMARK SMILES Oc1cc(O)c2cc(O)c(-c3cc(O)c(O)c(O)c3)[o+]c2c1
REMARK SMILES IDX 10 1 20 2 21 3 22 4 2 5 3 6 4 7 6 8 7 9 8 10 11 11 12 12
REMARK SMILES IDX 13 13 19 14 15 15 17 16 14 17 16 19 18 21 9 23 1 25 5 27
REMARK H PARENT 14 18 16 20 18 22 9 24 1 26 5 28
REMARK Flexibility Score: inf
ROOT
ATOM      1  C   UNL     1      10.995  52.546  20.563  1.00  0.00     0.402 A 
ATOM      2  O   UNL     1      11.616  51.633  21.306  1.00  0.00    -0.202 OA
ATOM      3  C   UNL     1      11.162  51.218  22.484  1.00  0.00     0.368 A 
ATOM      4  C   UNL     1      11.887  50.256  23.192  1.00  0.00     0.162 A 
ATOM      5  C   UNL     1      11.434  49.804  24.432  1.00  0.00     0.128 A 
ATOM      6  C   UNL     1      10.249  50.316  24.971  1.00  0.00     0.093 A 
ATOM      7  C   UNL     1       9.505  51.281  24.281  1.00  0.00     0.136 A 
ATOM      8  C   UNL     1       9.959  51.741  23.018  1.00  0.00     0.125 A 
ATOM      9  C   UNL     1       9.271  52.695  22.250  1.00  0.00     0.078 A 
ATOM     10  C   UNL     1       9.780  53.097  21.011  1.00  0.00     0.223 A 
ENDROOT
BRANCH   1  11
ATOM     11  C   UNL     1      11.608  52.933  19.272  1.00  0.00     0.091 A 
ATOM     12  C   UNL     1      11.336  52.173  18.124  1.00  0.00     0.068 A 
ATOM     13  C   UNL     1      11.917  52.504  16.895  1.00  0.00     0.162 A 
ATOM     14  C   UNL     1      12.503  54.013  19.182  1.00  0.00     0.068 A 
ATOM     15  C   UNL     1      12.794  53.597  16.805  1.00  0.00     0.200 A 
ATOM     16  C   UNL     1      13.091  54.350  17.954  1.00  0.00     0.162 A 
BRANCH  13  17
ATOM     17  O   UNL     1      11.608  51.732  15.774  1.00  0.00    -0.504 OA
ATOM     18  H   UNL     1      10.695  51.315  15.643  1.00  0.00     0.293 HD
ENDBRANCH  13  17
BRANCH  15  19
ATOM     19  O   UNL     1      13.366  53.922  15.574  1.00  0.00    -0.502 OA
ATOM     20  H   UNL     1      14.369  53.970  15.441  1.00  0.00     0.293 HD
ENDBRANCH  15  19
BRANCH  16  21
ATOM     21  O   UNL     1      13.973  55.427  17.875  1.00  0.00    -0.504 OA
ATOM     22  H   UNL     1      14.903  55.324  17.489  1.00  0.00     0.293 HD
ENDBRANCH  16  21
ENDBRANCH   1  11
BRANCH  10  23
ATOM     23  O   UNL     1       9.073  54.007  20.226  1.00  0.00    -0.500 OA
ATOM     24  H   UNL     1       8.823  53.800  19.265  1.00  0.00     0.294 HD
ENDBRANCH  10  23
BRANCH   5  25
ATOM     25  O   UNL     1      12.171  48.844  25.123  1.00  0.00    -0.507 OA
ATOM     26  H   UNL     1      12.522  48.012  24.663  1.00  0.00     0.293 HD
ENDBRANCH   5  25
BRANCH   7  27
ATOM     27  O   UNL     1       8.333  51.745  24.888  1.00  0.00    -0.507 OA
ATOM     28  H   UNL     1       7.403  51.587  24.527  1.00  0.00     0.293 HD
ENDBRANCH   7  27
TORSDOF 7
ENDMDL
MODEL 9
REMARK VINA RESULT:    -5.572      2.654      8.126
REMARK INTER + INTRA:          -7.233
REMARK INTER:                  -6.871
REMARK INTRA:                  -0.362
REMARK UNBOUND:                -0.358
REMARK SMILES Oc1cc(O)c2cc(O)c(-c3cc(O)c(O)c(O)c3)[o+]c2c1
REMARK SMILES IDX 10 1 20 2 21 3 22 4 2 5 3 6 4 7 6 8 7 9 8 10 11 11 12 12
REMARK SMILES IDX 13 13 19 14 15 15 17 16 14 17 16 19 18 21 9 23 1 25 5 27
REMARK H PARENT 14 18 16 20 18 22 9 24 1 26 5 28
REMARK Flexibility Score: inf
ROOT
ATOM      1  C   UNL     1      12.342  51.508  23.133  1.00  0.00     0.402 A 
ATOM      2  O   UNL     1      11.370  52.104  22.448  1.00  0.00    -0.202 OA
ATOM      3  C   UNL     1      10.080  51.954  22.730  1.00  0.00     0.368 A 
ATOM      4  C   UNL     1       9.131  52.620  21.950  1.00  0.00     0.162 A 
ATOM      5  C   UNL     1       7.770  52.479  22.222  1.00  0.00     0.128 A 
ATOM      6  C   UNL     1       7.352  51.666  23.281  1.00  0.00     0.093 A 
ATOM      7  C   UNL     1       8.283  50.988  24.077  1.00  0.00     0.136 A 
ATOM      8  C   UNL     1       9.668  51.131  23.806  1.00  0.00     0.125 A 
ATOM      9  C   UNL     1      10.672  50.501  24.559  1.00  0.00     0.078 A 
ATOM     10  C   UNL     1      12.018  50.693  24.234  1.00  0.00     0.223 A 
ENDROOT
BRANCH   1  11
ATOM     11  C   UNL     1      13.742  51.746  22.714  1.00  0.00     0.091 A 
ATOM     12  C   UNL     1      14.491  52.749  23.349  1.00  0.00     0.068 A 
ATOM     13  C   UNL     1      15.809  53.010  22.960  1.00  0.00     0.162 A 
ATOM     14  C   UNL     1      14.321  51.028  21.653  1.00  0.00     0.068 A 
ATOM     15  C   UNL     1      16.391  52.275  21.914  1.00  0.00     0.200 A 
ATOM     16  C   UNL     1      15.641  51.284  21.257  1.00  0.00     0.162 A 
BRANCH  13  17
ATOM     17  O   UNL     1      16.525  54.005  23.626  1.00  0.00    -0.504 OA
ATOM     18  H   UNL     1      16.124  54.912  23.829  1.00  0.00     0.293 HD
ENDBRANCH  13  17
BRANCH  15  19
ATOM     19  O   UNL     1      17.708  52.539  21.534  1.00  0.00    -0.502 OA
ATOM     20  H   UNL     1      18.321  53.126  22.087  1.00  0.00     0.293 HD
ENDBRANCH  15  19
BRANCH  16  21
ATOM     21  O   UNL     1      16.207  50.560  20.207  1.00  0.00    -0.504 OA
ATOM     22  H   UNL     1      16.979  49.923  20.358  1.00  0.00     0.293 HD
ENDBRANCH  16  21
ENDBRANCH   1  11
BRANCH  10  23
ATOM     23  O   UNL     1      13.017  50.107  25.011  1.00  0.00    -0.500 OA
ATOM     24  H   UNL     1      14.000  50.249  24.809  1.00  0.00     0.294 HD
ENDBRANCH  10  23
BRANCH   5  25
ATOM     25  O   UNL     1       6.839  53.152  21.433  1.00  0.00    -0.507 OA
ATOM     26  H   UNL     1       5.853  52.917  21.461  1.00  0.00     0.293 HD
ENDBRANCH   5  25
BRANCH   7  27
ATOM     27  O   UNL     1       7.784  50.192  25.114  1.00  0.00    -0.507 OA
ATOM     28  H   UNL     1       6.874  49.754  25.110  1.00  0.00     0.293 HD
ENDBRANCH   7  27
TORSDOF 7
ENDMDL
