MODEL 1
REMARK VINA RESULT:    -6.420      0.000      0.000
REMARK INTER + INTRA:          -7.820
REMARK INTER:                  -7.546
REMARK INTRA:                  -0.274
REMARK UNBOUND:                -0.274
REMARK SMILES O=c1cc(-c2ccc(O)c(O)c2)oc2cc(O)cc(O)c12
REMARK SMILES IDX 4 1 3 2 2 3 1 4 21 5 19 6 18 7 16 8 15 9 14 10 13 11 5 12
REMARK SMILES IDX 6 13 7 14 8 15 12 16 10 17 9 18 11 20 20 22 17 24
REMARK H PARENT 9 19 11 21 20 23 17 25
REMARK Flexibility Score: inf
ROOT
ATOM      1  C   UNL     1      15.280 -23.887  -6.849  1.00  0.00     0.138 A 
ATOM      2  C   UNL     1      14.936 -24.828  -5.868  1.00  0.00     0.100 A 
ATOM      3  C   UNL     1      13.662 -24.795  -5.298  1.00  0.00     0.197 A 
ATOM      4  O   UNL     1      13.365 -25.686  -4.461  1.00  0.00    -0.289 OA
ATOM      5  C   UNL     1      12.742 -23.792  -5.686  1.00  0.00     0.107 A 
ATOM      6  C   UNL     1      11.429 -23.641  -5.149  1.00  0.00     0.134 A 
ATOM      7  C   UNL     1      10.572 -22.670  -5.684  1.00  0.00     0.093 A 
ATOM      8  C   UNL     1      10.999 -21.810  -6.695  1.00  0.00     0.123 A 
ATOM      9  C   UNL     1      12.298 -21.916  -7.193  1.00  0.00     0.094 A 
ATOM     10  C   UNL     1      13.164 -22.897  -6.705  1.00  0.00     0.146 A 
ATOM     11  O   UNL     1      14.387 -22.976  -7.219  1.00  0.00    -0.456 OA
ENDROOT
BRANCH   1  12
ATOM     12  C   UNL     1      16.621 -23.873  -7.487  1.00  0.00     0.021 A 
ATOM     13  C   UNL     1      16.776 -23.766  -8.882  1.00  0.00     0.016 A 
ATOM     14  C   UNL     1      18.051 -23.745  -9.454  1.00  0.00     0.051 A 
ATOM     15  C   UNL     1      19.191 -23.825  -8.644  1.00  0.00     0.157 A 
ATOM     16  C   UNL     1      17.771 -23.939  -6.680  1.00  0.00     0.062 A 
ATOM     17  C   UNL     1      19.051 -23.920  -7.255  1.00  0.00     0.158 A 
BRANCH  15  18
ATOM     18  O   UNL     1      20.463 -23.807  -9.212  1.00  0.00    -0.504 OA
ATOM     19  H   UNL     1      21.163 -23.133  -8.925  1.00  0.00     0.293 HD
ENDBRANCH  15  18
BRANCH  17  20
ATOM     20  O   UNL     1      20.186 -23.994  -6.450  1.00  0.00    -0.504 OA
ATOM     21  H   UNL     1      20.134 -23.869  -5.446  1.00  0.00     0.293 HD
ENDBRANCH  17  20
ENDBRANCH   1  12
BRANCH   6  22
ATOM     22  O   UNL     1      10.925 -24.393  -4.083  1.00  0.00    -0.507 OA
ATOM     23  H   UNL     1      10.075 -24.191  -3.582  1.00  0.00     0.293 HD
ENDBRANCH   6  22
BRANCH   8  24
ATOM     24  O   UNL     1      10.124 -20.846  -7.192  1.00  0.00    -0.508 OA
ATOM     25  H   UNL     1       9.924 -19.996  -6.677  1.00  0.00     0.293 HD
ENDBRANCH   8  24
TORSDOF 5
ENDMDL
MODEL 2
REMARK VINA RESULT:    -6.344      1.357      2.849
REMARK INTER + INTRA:          -7.730
REMARK INTER:                  -7.421
REMARK INTRA:                  -0.309
REMARK UNBOUND:                -0.274
REMARK SMILES O=c1cc(-c2ccc(O)c(O)c2)oc2cc(O)cc(O)c12
REMARK SMILES IDX 4 1 3 2 2 3 1 4 21 5 19 6 18 7 16 8 15 9 14 10 13 11 5 12
REMARK SMILES IDX 6 13 7 14 8 15 12 16 10 17 9 18 11 20 20 22 17 24
REMARK H PARENT 9 19 11 21 20 23 17 25
REMARK Flexibility Score: inf
ROOT
ATOM      1  C   UNL     1      15.314 -23.784  -6.753  1.00  0.00     0.138 A 
ATOM      2  C   UNL     1      14.188 -23.181  -7.331  1.00  0.00     0.100 A 
ATOM      3  C   UNL     1      12.975 -23.180  -6.640  1.00  0.00     0.197 A 
ATOM      4  O   UNL     1      11.997 -22.584  -7.161  1.00  0.00    -0.289 OA
ATOM      5  C   UNL     1      12.882 -23.818  -5.380  1.00  0.00     0.107 A 
ATOM      6  C   UNL     1      11.690 -23.909  -4.600  1.00  0.00     0.134 A 
ATOM      7  C   UNL     1      11.744 -24.479  -3.321  1.00  0.00     0.093 A 
ATOM      8  C   UNL     1      12.930 -25.012  -2.819  1.00  0.00     0.123 A 
ATOM      9  C   UNL     1      14.090 -24.973  -3.593  1.00  0.00     0.094 A 
ATOM     10  C   UNL     1      14.077 -24.380  -4.857  1.00  0.00     0.146 A 
ATOM     11  O   UNL     1      15.208 -24.348  -5.555  1.00  0.00    -0.456 OA
ENDROOT
BRANCH   1  12
ATOM     12  C   UNL     1      16.628 -23.817  -7.444  1.00  0.00     0.021 A 
ATOM     13  C   UNL     1      16.730 -23.738  -8.846  1.00  0.00     0.016 A 
ATOM     14  C   UNL     1      17.982 -23.762  -9.468  1.00  0.00     0.051 A 
ATOM     15  C   UNL     1      19.151 -23.857  -8.702  1.00  0.00     0.157 A 
ATOM     16  C   UNL     1      17.807 -23.900  -6.682  1.00  0.00     0.062 A 
ATOM     17  C   UNL     1      19.063 -23.925  -7.307  1.00  0.00     0.158 A 
BRANCH  15  18
ATOM     18  O   UNL     1      20.399 -23.883  -9.319  1.00  0.00    -0.504 OA
ATOM     19  H   UNL     1      20.824 -23.042  -9.691  1.00  0.00     0.293 HD
ENDBRANCH  15  18
BRANCH  17  20
ATOM     20  O   UNL     1      20.227 -24.015  -6.546  1.00  0.00    -0.504 OA
ATOM     21  H   UNL     1      20.717 -23.188  -6.225  1.00  0.00     0.293 HD
ENDBRANCH  17  20
ENDBRANCH   1  12
BRANCH   6  22
ATOM     22  O   UNL     1      10.432 -23.481  -5.036  1.00  0.00    -0.507 OA
ATOM     23  H   UNL     1       9.944 -22.670  -4.689  1.00  0.00     0.293 HD
ENDBRANCH   6  22
BRANCH   8  24
ATOM     24  O   UNL     1      12.942 -25.585  -1.549  1.00  0.00    -0.508 OA
ATOM     25  H   UNL     1      12.227 -25.368  -0.863  1.00  0.00     0.293 HD
ENDBRANCH   8  24
TORSDOF 5
ENDMDL
MODEL 3
REMARK VINA RESULT:    -6.243      4.072      5.919
REMARK INTER + INTRA:          -7.611
REMARK INTER:                  -7.349
REMARK INTRA:                  -0.262
REMARK UNBOUND:                -0.274
REMARK SMILES O=c1cc(-c2ccc(O)c(O)c2)oc2cc(O)cc(O)c12
REMARK SMILES IDX 4 1 3 2 2 3 1 4 21 5 19 6 18 7 16 8 15 9 14 10 13 11 5 12
REMARK SMILES IDX 6 13 7 14 8 15 12 16 10 17 9 18 11 20 20 22 17 24
REMARK H PARENT 9 19 11 21 20 23 17 25
REMARK Flexibility Score: inf
ROOT
ATOM      1  C   UNL     1      13.417 -25.561  -3.383  1.00  0.00     0.138 A 
ATOM      2  C   UNL     1      13.658 -24.835  -2.209  1.00  0.00     0.100 A 
ATOM      3  C   UNL     1      13.159 -25.304  -0.993  1.00  0.00     0.197 A 
ATOM      4  O   UNL     1      13.439 -24.659   0.050  1.00  0.00    -0.289 OA
ATOM      5  C   UNL     1      12.383 -26.488  -0.959  1.00  0.00     0.107 A 
ATOM      6  C   UNL     1      11.795 -27.042   0.217  1.00  0.00     0.134 A 
ATOM      7  C   UNL     1      11.131 -28.273   0.141  1.00  0.00     0.093 A 
ATOM      8  C   UNL     1      10.984 -28.940  -1.074  1.00  0.00     0.123 A 
ATOM      9  C   UNL     1      11.513 -28.383  -2.239  1.00  0.00     0.094 A 
ATOM     10  C   UNL     1      12.211 -27.174  -2.190  1.00  0.00     0.146 A 
ATOM     11  O   UNL     1      12.714 -26.687  -3.320  1.00  0.00    -0.456 OA
ENDROOT
BRANCH   1  12
ATOM     12  C   UNL     1      13.922 -25.108  -4.705  1.00  0.00     0.021 A 
ATOM     13  C   UNL     1      13.048 -24.725  -5.740  1.00  0.00     0.016 A 
ATOM     14  C   UNL     1      13.553 -24.293  -6.970  1.00  0.00     0.051 A 
ATOM     15  C   UNL     1      14.936 -24.231  -7.184  1.00  0.00     0.157 A 
ATOM     16  C   UNL     1      15.309 -25.030  -4.924  1.00  0.00     0.062 A 
ATOM     17  C   UNL     1      15.815 -24.598  -6.159  1.00  0.00     0.158 A 
BRANCH  15  18
ATOM     18  O   UNL     1      15.441 -23.803  -8.410  1.00  0.00    -0.504 OA
ATOM     19  H   UNL     1      15.220 -22.888  -8.784  1.00  0.00     0.293 HD
ENDBRANCH  15  18
BRANCH  17  20
ATOM     20  O   UNL     1      17.190 -24.531  -6.374  1.00  0.00    -0.504 OA
ATOM     21  H   UNL     1      17.648 -25.112  -7.067  1.00  0.00     0.293 HD
ENDBRANCH  17  20
ENDBRANCH   1  12
BRANCH   6  22
ATOM     22  O   UNL     1      11.811 -26.421   1.470  1.00  0.00    -0.507 OA
ATOM     23  H   UNL     1      11.248 -26.695   2.260  1.00  0.00     0.293 HD
ENDBRANCH   6  22
BRANCH   8  24
ATOM     24  O   UNL     1      10.304 -30.156  -1.113  1.00  0.00    -0.508 OA
ATOM     25  H   UNL     1      10.491 -30.890  -0.438  1.00  0.00     0.293 HD
ENDBRANCH   8  24
TORSDOF 5
ENDMDL
MODEL 4
REMARK VINA RESULT:    -6.167      1.646      7.525
REMARK INTER + INTRA:          -7.523
REMARK INTER:                  -7.247
REMARK INTRA:                  -0.276
REMARK UNBOUND:                -0.274
REMARK SMILES O=c1cc(-c2ccc(O)c(O)c2)oc2cc(O)cc(O)c12
REMARK SMILES IDX 4 1 3 2 2 3 1 4 21 5 19 6 18 7 16 8 15 9 14 10 13 11 5 12
REMARK SMILES IDX 6 13 7 14 8 15 12 16 10 17 9 18 11 20 20 22 17 24
REMARK H PARENT 9 19 11 21 20 23 17 25
REMARK Flexibility Score: inf
ROOT
ATOM      1  C   UNL     1      16.309 -24.109  -6.706  1.00  0.00     0.138 A 
ATOM      2  C   UNL     1      16.448 -24.244  -8.095  1.00  0.00     0.100 A 
ATOM      3  C   UNL     1      17.703 -24.073  -8.682  1.00  0.00     0.197 A 
ATOM      4  O   UNL     1      17.806 -24.254  -9.923  1.00  0.00    -0.289 OA
ATOM      5  C   UNL     1      18.816 -23.730  -7.878  1.00  0.00     0.107 A 
ATOM      6  C   UNL     1      20.135 -23.498  -8.371  1.00  0.00     0.134 A 
ATOM      7  C   UNL     1      21.178 -23.262  -7.466  1.00  0.00     0.093 A 
ATOM      8  C   UNL     1      20.940 -23.192  -6.094  1.00  0.00     0.123 A 
ATOM      9  C   UNL     1      19.646 -23.368  -5.605  1.00  0.00     0.094 A 
ATOM     10  C   UNL     1      18.591 -23.640  -6.479  1.00  0.00     0.146 A 
ATOM     11  O   UNL     1      17.376 -23.819  -5.970  1.00  0.00    -0.456 OA
ENDROOT
BRANCH   1  12
ATOM     12  C   UNL     1      14.998 -24.278  -6.029  1.00  0.00     0.021 A 
ATOM     13  C   UNL     1      14.871 -25.009  -4.833  1.00  0.00     0.016 A 
ATOM     14  C   UNL     1      13.626 -25.143  -4.212  1.00  0.00     0.051 A 
ATOM     15  C   UNL     1      12.490 -24.544  -4.771  1.00  0.00     0.157 A 
ATOM     16  C   UNL     1      13.854 -23.669  -6.576  1.00  0.00     0.062 A 
ATOM     17  C   UNL     1      12.605 -23.804  -5.953  1.00  0.00     0.158 A 
BRANCH  15  18
ATOM     18  O   UNL     1      11.247 -24.677  -4.155  1.00  0.00    -0.504 OA
ATOM     19  H   UNL     1      11.078 -24.324  -3.221  1.00  0.00     0.293 HD
ENDBRANCH  15  18
BRANCH  17  20
ATOM     20  O   UNL     1      11.473 -23.205  -6.504  1.00  0.00    -0.504 OA
ATOM     21  H   UNL     1      11.501 -22.752  -7.410  1.00  0.00     0.293 HD
ENDBRANCH  17  20
ENDBRANCH   1  12
BRANCH   6  22
ATOM     22  O   UNL     1      20.471 -23.464  -9.728  1.00  0.00    -0.507 OA
ATOM     23  H   UNL     1      20.289 -24.204 -10.388  1.00  0.00     0.293 HD
ENDBRANCH   6  22
BRANCH   8  24
ATOM     24  O   UNL     1      22.000 -22.940  -5.225  1.00  0.00    -0.508 OA
ATOM     25  H   UNL     1      22.944 -23.246  -5.437  1.00  0.00     0.293 HD
ENDBRANCH   8  24
TORSDOF 5
ENDMDL
MODEL 5
REMARK VINA RESULT:    -6.072      3.186      6.945
REMARK INTER + INTRA:          -7.410
REMARK INTER:                  -7.098
REMARK INTRA:                  -0.313
REMARK UNBOUND:                -0.274
REMARK SMILES O=c1cc(-c2ccc(O)c(O)c2)oc2cc(O)cc(O)c12
REMARK SMILES IDX 4 1 3 2 2 3 1 4 21 5 19 6 18 7 16 8 15 9 14 10 13 11 5 12
REMARK SMILES IDX 6 13 7 14 8 15 12 16 10 17 9 18 11 20 20 22 17 24
REMARK H PARENT 9 19 11 21 20 23 17 25
REMARK Flexibility Score: inf
ROOT
ATOM      1  C   UNL     1      15.893 -23.564  -4.734  1.00  0.00     0.138 A 
ATOM      2  C   UNL     1      15.055 -23.925  -5.799  1.00  0.00     0.100 A 
ATOM      3  C   UNL     1      15.542 -23.881  -7.106  1.00  0.00     0.197 A 
ATOM      4  O   UNL     1      14.784 -24.263  -8.034  1.00  0.00    -0.289 OA
ATOM      5  C   UNL     1      16.865 -23.439  -7.350  1.00  0.00     0.107 A 
ATOM      6  C   UNL     1      17.457 -23.321  -8.644  1.00  0.00     0.134 A 
ATOM      7  C   UNL     1      18.808 -22.966  -8.753  1.00  0.00     0.093 A 
ATOM      8  C   UNL     1      19.570 -22.670  -7.624  1.00  0.00     0.123 A 
ATOM      9  C   UNL     1      18.987 -22.734  -6.358  1.00  0.00     0.094 A 
ATOM     10  C   UNL     1      17.652 -23.118  -6.213  1.00  0.00     0.146 A 
ATOM     11  O   UNL     1      17.141 -23.184  -4.988  1.00  0.00    -0.456 OA
ENDROOT
BRANCH   1  12
ATOM     12  C   UNL     1      15.427 -23.590  -3.324  1.00  0.00     0.021 A 
ATOM     13  C   UNL     1      14.321 -24.362  -2.924  1.00  0.00     0.016 A 
ATOM     14  C   UNL     1      13.911 -24.374  -1.588  1.00  0.00     0.051 A 
ATOM     15  C   UNL     1      14.603 -23.622  -0.629  1.00  0.00     0.157 A 
ATOM     16  C   UNL     1      16.124 -22.848  -2.353  1.00  0.00     0.062 A 
ATOM     17  C   UNL     1      15.711 -22.860  -1.012  1.00  0.00     0.158 A 
BRANCH  15  18
ATOM     18  O   UNL     1      14.195 -23.631   0.703  1.00  0.00    -0.504 OA
ATOM     19  H   UNL     1      13.809 -24.462   1.134  1.00  0.00     0.293 HD
ENDBRANCH  15  18
BRANCH  17  20
ATOM     20  O   UNL     1      16.401 -22.116  -0.056  1.00  0.00    -0.504 OA
ATOM     21  H   UNL     1      16.543 -22.463   0.885  1.00  0.00     0.293 HD
ENDBRANCH  17  20
ENDBRANCH   1  12
BRANCH   6  22
ATOM     22  O   UNL     1      16.767 -23.516  -9.844  1.00  0.00    -0.507 OA
ATOM     23  H   UNL     1      15.918 -24.051  -9.943  1.00  0.00     0.293 HD
ENDBRANCH   6  22
BRANCH   8  24
ATOM     24  O   UNL     1      20.907 -22.306  -7.774  1.00  0.00    -0.508 OA
ATOM     25  H   UNL     1      21.641 -22.755  -7.238  1.00  0.00     0.293 HD
ENDBRANCH   8  24
TORSDOF 5
ENDMDL
MODEL 6
REMARK VINA RESULT:    -5.968      2.624      4.448
REMARK INTER + INTRA:          -7.288
REMARK INTER:                  -7.021
REMARK INTRA:                  -0.267
REMARK UNBOUND:                -0.274
REMARK SMILES O=c1cc(-c2ccc(O)c(O)c2)oc2cc(O)cc(O)c12
REMARK SMILES IDX 4 1 3 2 2 3 1 4 21 5 19 6 18 7 16 8 15 9 14 10 13 11 5 12
REMARK SMILES IDX 6 13 7 14 8 15 12 16 10 17 9 18 11 20 20 22 17 24
REMARK H PARENT 9 19 11 21 20 23 17 25
REMARK Flexibility Score: inf
ROOT
ATOM      1  C   UNL     1      18.575 -23.159  -6.568  1.00  0.00     0.138 A 
ATOM      2  C   UNL     1      18.046 -23.438  -7.836  1.00  0.00     0.100 A 
ATOM      3  C   UNL     1      16.699 -23.783  -7.961  1.00  0.00     0.197 A 
ATOM      4  O   UNL     1      16.242 -23.974  -9.117  1.00  0.00    -0.289 OA
ATOM      5  C   UNL     1      15.887 -23.884  -6.806  1.00  0.00     0.107 A 
ATOM      6  C   UNL     1      14.511 -24.261  -6.809  1.00  0.00     0.134 A 
ATOM      7  C   UNL     1      13.784 -24.230  -5.611  1.00  0.00     0.093 A 
ATOM      8  C   UNL     1      14.397 -23.893  -4.405  1.00  0.00     0.123 A 
ATOM      9  C   UNL     1      15.754 -23.571  -4.383  1.00  0.00     0.094 A 
ATOM     10  C   UNL     1      16.497 -23.559  -5.565  1.00  0.00     0.146 A 
ATOM     11  O   UNL     1      17.783 -23.230  -5.502  1.00  0.00    -0.456 OA
ENDROOT
BRANCH   1  12
ATOM     12  C   UNL     1      20.000 -22.790  -6.375  1.00  0.00     0.021 A 
ATOM     13  C   UNL     1      21.025 -23.755  -6.396  1.00  0.00     0.016 A 
ATOM     14  C   UNL     1      22.359 -23.376  -6.222  1.00  0.00     0.051 A 
ATOM     15  C   UNL     1      22.692 -22.029  -6.031  1.00  0.00     0.157 A 
ATOM     16  C   UNL     1      20.345 -21.438  -6.196  1.00  0.00     0.062 A 
ATOM     17  C   UNL     1      21.684 -21.059  -6.020  1.00  0.00     0.158 A 
BRANCH  15  18
ATOM     18  O   UNL     1      24.021 -21.649  -5.855  1.00  0.00    -0.504 OA
ATOM     19  H   UNL     1      24.393 -21.431  -4.938  1.00  0.00     0.293 HD
ENDBRANCH  15  18
BRANCH  17  20
ATOM     20  O   UNL     1      22.019 -19.718  -5.835  1.00  0.00    -0.504 OA
ATOM     21  H   UNL     1      22.549 -19.203  -6.528  1.00  0.00     0.293 HD
ENDBRANCH  17  20
ENDBRANCH   1  12
BRANCH   6  22
ATOM     22  O   UNL     1      13.818 -24.692  -7.944  1.00  0.00    -0.507 OA
ATOM     23  H   UNL     1      13.595 -24.115  -8.741  1.00  0.00     0.293 HD
ENDBRANCH   6  22
BRANCH   8  24
ATOM     24  O   UNL     1      13.646 -23.888  -3.232  1.00  0.00    -0.508 OA
ATOM     25  H   UNL     1      14.082 -23.772  -2.324  1.00  0.00     0.293 HD
ENDBRANCH   8  24
TORSDOF 5
ENDMDL
MODEL 7
REMARK VINA RESULT:    -5.811      2.931      4.095
REMARK INTER + INTRA:          -7.103
REMARK INTER:                  -6.814
REMARK INTRA:                  -0.289
REMARK UNBOUND:                -0.274
REMARK SMILES O=c1cc(-c2ccc(O)c(O)c2)oc2cc(O)cc(O)c12
REMARK SMILES IDX 4 1 3 2 2 3 1 4 21 5 19 6 18 7 16 8 15 9 14 10 13 11 5 12
REMARK SMILES IDX 6 13 7 14 8 15 12 16 10 17 9 18 11 20 20 22 17 24
REMARK H PARENT 9 19 11 21 20 23 17 25
REMARK Flexibility Score: inf
ROOT
ATOM      1  C   UNL     1      15.225 -24.022  -5.112  1.00  0.00     0.138 A 
ATOM      2  C   UNL     1      14.295 -25.012  -5.458  1.00  0.00     0.100 A 
ATOM      3  C   UNL     1      13.488 -25.577  -4.469  1.00  0.00     0.197 A 
ATOM      4  O   UNL     1      12.625 -26.423  -4.820  1.00  0.00    -0.289 OA
ATOM      5  C   UNL     1      13.639 -25.172  -3.121  1.00  0.00     0.107 A 
ATOM      6  C   UNL     1      12.896 -25.703  -2.024  1.00  0.00     0.134 A 
ATOM      7  C   UNL     1      13.064 -25.153  -0.746  1.00  0.00     0.093 A 
ATOM      8  C   UNL     1      13.988 -24.134  -0.516  1.00  0.00     0.123 A 
ATOM      9  C   UNL     1      14.756 -23.643  -1.572  1.00  0.00     0.094 A 
ATOM     10  C   UNL     1      14.586 -24.146  -2.864  1.00  0.00     0.146 A 
ATOM     11  O   UNL     1      15.325 -23.637  -3.844  1.00  0.00    -0.456 OA
ENDROOT
BRANCH   1  12
ATOM     12  C   UNL     1      16.111 -23.389  -6.123  1.00  0.00     0.021 A 
ATOM     13  C   UNL     1      16.706 -22.133  -5.902  1.00  0.00     0.016 A 
ATOM     14  C   UNL     1      17.544 -21.566  -6.868  1.00  0.00     0.051 A 
ATOM     15  C   UNL     1      17.805 -22.247  -8.064  1.00  0.00     0.157 A 
ATOM     16  C   UNL     1      16.389 -24.071  -7.321  1.00  0.00     0.062 A 
ATOM     17  C   UNL     1      17.229 -23.501  -8.290  1.00  0.00     0.158 A 
BRANCH  15  18
ATOM     18  O   UNL     1      18.637 -21.683  -9.028  1.00  0.00    -0.504 OA
ATOM     19  H   UNL     1      18.895 -20.704  -9.000  1.00  0.00     0.293 HD
ENDBRANCH  15  18
BRANCH  17  20
ATOM     20  O   UNL     1      17.494 -24.178  -9.479  1.00  0.00    -0.504 OA
ATOM     21  H   UNL     1      18.294 -24.793  -9.573  1.00  0.00     0.293 HD
ENDBRANCH  17  20
ENDBRANCH   1  12
BRANCH   6  22
ATOM     22  O   UNL     1      12.004 -26.774  -2.126  1.00  0.00    -0.507 OA
ATOM     23  H   UNL     1      12.203 -27.723  -1.847  1.00  0.00     0.293 HD
ENDBRANCH   6  22
BRANCH   8  24
ATOM     24  O   UNL     1      14.139 -23.623   0.771  1.00  0.00    -0.508 OA
ATOM     25  H   UNL     1      14.184 -24.230   1.581  1.00  0.00     0.293 HD
ENDBRANCH   8  24
TORSDOF 5
ENDMDL
MODEL 8
REMARK VINA RESULT:    -5.769     10.995     12.568
REMARK INTER + INTRA:          -7.054
REMARK INTER:                  -6.760
REMARK INTRA:                  -0.295
REMARK UNBOUND:                -0.274
REMARK SMILES O=c1cc(-c2ccc(O)c(O)c2)oc2cc(O)cc(O)c12
REMARK SMILES IDX 4 1 3 2 2 3 1 4 21 5 19 6 18 7 16 8 15 9 14 10 13 11 5 12
REMARK SMILES IDX 6 13 7 14 8 15 12 16 10 17 9 18 11 20 20 22 17 24
REMARK H PARENT 9 19 11 21 20 23 17 25
REMARK Flexibility Score: inf
ROOT
ATOM      1  C   UNL     1      19.177 -30.277   2.720  1.00  0.00     0.138 A 
ATOM      2  C   UNL     1      19.073 -30.230   4.117  1.00  0.00     0.100 A 
ATOM      3  C   UNL     1      18.876 -29.002   4.753  1.00  0.00     0.197 A 
ATOM      4  O   UNL     1      18.732 -28.999   6.003  1.00  0.00    -0.289 OA
ATOM      5  C   UNL     1      18.819 -27.814   3.987  1.00  0.00     0.107 A 
ATOM      6  C   UNL     1      18.655 -26.504   4.529  1.00  0.00     0.134 A 
ATOM      7  C   UNL     1      18.514 -25.411   3.663  1.00  0.00     0.093 A 
ATOM      8  C   UNL     1      18.587 -25.574   2.280  1.00  0.00     0.123 A 
ATOM      9  C   UNL     1      18.797 -26.843   1.741  1.00  0.00     0.094 A 
ATOM     10  C   UNL     1      18.907 -27.957   2.577  1.00  0.00     0.146 A 
ATOM     11  O   UNL     1      19.087 -29.151   2.022  1.00  0.00    -0.456 OA
ENDROOT
BRANCH   1  12
ATOM     12  C   UNL     1      19.390 -31.554   1.992  1.00  0.00     0.021 A 
ATOM     13  C   UNL     1      18.671 -32.720   2.316  1.00  0.00     0.016 A 
ATOM     14  C   UNL     1      18.885 -33.906   1.607  1.00  0.00     0.051 A 
ATOM     15  C   UNL     1      19.814 -33.944   0.558  1.00  0.00     0.157 A 
ATOM     16  C   UNL     1      20.310 -31.598   0.929  1.00  0.00     0.062 A 
ATOM     17  C   UNL     1      20.525 -32.788   0.218  1.00  0.00     0.158 A 
BRANCH  15  18
ATOM     18  O   UNL     1      20.030 -35.124  -0.149  1.00  0.00    -0.504 OA
ATOM     19  H   UNL     1      19.519 -35.335  -0.998  1.00  0.00     0.293 HD
ENDBRANCH  15  18
BRANCH  17  20
ATOM     20  O   UNL     1      21.445 -32.828  -0.829  1.00  0.00    -0.504 OA
ATOM     21  H   UNL     1      22.255 -32.219  -0.846  1.00  0.00     0.293 HD
ENDBRANCH  17  20
ENDBRANCH   1  12
BRANCH   6  22
ATOM     22  O   UNL     1      18.648 -26.216   5.897  1.00  0.00    -0.507 OA
ATOM     23  H   UNL     1      18.591 -26.902   6.633  1.00  0.00     0.293 HD
ENDBRANCH   6  22
BRANCH   8  24
ATOM     24  O   UNL     1      18.457 -24.462   1.451  1.00  0.00    -0.508 OA
ATOM     25  H   UNL     1      18.394 -24.556   0.443  1.00  0.00     0.293 HD
ENDBRANCH   8  24
TORSDOF 5
ENDMDL
MODEL 9
REMARK VINA RESULT:    -5.704      2.791      3.526
REMARK INTER + INTRA:          -6.978
REMARK INTER:                  -6.684
REMARK INTRA:                  -0.294
REMARK UNBOUND:                -0.274
REMARK SMILES O=c1cc(-c2ccc(O)c(O)c2)oc2cc(O)cc(O)c12
REMARK SMILES IDX 4 1 3 2 2 3 1 4 21 5 19 6 18 7 16 8 15 9 14 10 13 11 5 12
REMARK SMILES IDX 6 13 7 14 8 15 12 16 10 17 9 18 11 20 20 22 17 24
REMARK H PARENT 9 19 11 21 20 23 17 25
REMARK Flexibility Score: inf
ROOT
ATOM      1  C   UNL     1      15.618 -24.040  -5.171  1.00  0.00     0.138 A 
ATOM      2  C   UNL     1      16.037 -23.608  -3.904  1.00  0.00     0.100 A 
ATOM      3  C   UNL     1      15.293 -23.955  -2.776  1.00  0.00     0.197 A 
ATOM      4  O   UNL     1      15.724 -23.599  -1.649  1.00  0.00    -0.289 OA
ATOM      5  C   UNL     1      14.103 -24.709  -2.921  1.00  0.00     0.107 A 
ATOM      6  C   UNL     1      13.246 -25.092  -1.846  1.00  0.00     0.134 A 
ATOM      7  C   UNL     1      12.148 -25.923  -2.102  1.00  0.00     0.093 A 
ATOM      8  C   UNL     1      11.843 -26.337  -3.398  1.00  0.00     0.123 A 
ATOM      9  C   UNL     1      12.646 -25.927  -4.463  1.00  0.00     0.094 A 
ATOM     10  C   UNL     1      13.768 -25.127  -4.236  1.00  0.00     0.146 A 
ATOM     11  O   UNL     1      14.516 -24.774  -5.276  1.00  0.00    -0.456 OA
ENDROOT
BRANCH   1  12
ATOM     12  C   UNL     1      16.370 -23.698  -6.405  1.00  0.00     0.021 A 
ATOM     13  C   UNL     1      15.996 -24.205  -7.664  1.00  0.00     0.016 A 
ATOM     14  C   UNL     1      16.717 -23.858  -8.811  1.00  0.00     0.051 A 
ATOM     15  C   UNL     1      17.816 -22.995  -8.720  1.00  0.00     0.157 A 
ATOM     16  C   UNL     1      17.467 -22.822  -6.326  1.00  0.00     0.062 A 
ATOM     17  C   UNL     1      18.191 -22.475  -7.476  1.00  0.00     0.158 A 
BRANCH  15  18
ATOM     18  O   UNL     1      18.537 -22.649  -9.861  1.00  0.00    -0.504 OA
ATOM     19  H   UNL     1      18.601 -23.272 -10.657  1.00  0.00     0.293 HD
ENDBRANCH  15  18
BRANCH  17  20
ATOM     20  O   UNL     1      19.282 -21.613  -7.389  1.00  0.00    -0.504 OA
ATOM     21  H   UNL     1      20.074 -21.818  -6.791  1.00  0.00     0.293 HD
ENDBRANCH  17  20
ENDBRANCH   1  12
BRANCH   6  22
ATOM     22  O   UNL     1      13.411 -24.671  -0.523  1.00  0.00    -0.507 OA
ATOM     23  H   UNL     1      12.666 -24.566   0.148  1.00  0.00     0.293 HD
ENDBRANCH   6  22
BRANCH   8  24
ATOM     24  O   UNL     1      10.734 -27.151  -3.616  1.00  0.00    -0.508 OA
ATOM     25  H   UNL     1      10.558 -27.971  -3.046  1.00  0.00     0.293 HD
ENDBRANCH   8  24
TORSDOF 5
ENDMDL
