MODEL 1
REMARK VINA RESULT:    -3.635      0.000      0.000
REMARK INTER + INTRA:          -9.075
REMARK INTER:                  -6.610
REMARK INTRA:                  -2.465
REMARK UNBOUND:                -2.465
REMARK SMILES CCCCCCCCCCCCCCCC(=O)[O-]
REMARK SMILES IDX 9 1 10 2 11 3 12 4 13 5 14 6 15 7 16 8 17 9 18 10 8 11 7 12
REMARK SMILES IDX 6 13 5 14 4 15 3 16 2 17 1 18
REMARK H PARENT
REMARK Flexibility Score: inf
ROOT
ATOM      1  C   UNL     1     188.064 189.078 169.067  1.00  0.00     0.000 C 
ENDROOT
BRANCH   1   2
ATOM      2  C   UNL     1     189.533 188.625 169.153  1.00  0.00     0.000 C 
BRANCH   2   3
ATOM      3  C   UNL     1     189.903 187.844 170.428  1.00  0.00     0.000 C 
BRANCH   3   4
ATOM      4  C   UNL     1     190.214 186.364 170.156  1.00  0.00     0.000 C 
BRANCH   4   5
ATOM      5  C   UNL     1     189.273 185.450 170.954  1.00  0.00     0.000 C 
BRANCH   5   6
ATOM      6  C   UNL     1     188.900 186.032 172.330  1.00  0.00     0.006 C 
BRANCH   6   7
ATOM      7  C   UNL     1     189.548 185.309 173.521  1.00  0.00     0.053 C 
BRANCH   7   8
ATOM      8  C   UNL     1     190.823 185.967 173.950  1.00  0.00     0.041 C 
ATOM      9  O   UNL     1     191.872 185.824 173.268  1.00  0.00    -0.550 OA
ATOM     10  O   UNL     1     190.860 186.714 175.121  1.00  0.00    -0.550 OA
ENDBRANCH   7   8
ENDBRANCH   6   7
ENDBRANCH   5   6
ENDBRANCH   4   5
ENDBRANCH   3   4
ENDBRANCH   2   3
ENDBRANCH   1   2
BRANCH   1  11
ATOM     11  C   UNL     1     187.326 188.972 170.413  1.00  0.00     0.000 C 
BRANCH  11  12
ATOM     12  C   UNL     1     186.342 187.790 170.453  1.00  0.00    -0.000 C 
BRANCH  12  13
ATOM     13  C   UNL     1     185.293 187.862 169.330  1.00  0.00    -0.000 C 
BRANCH  13  14
ATOM     14  C   UNL     1     185.471 186.755 168.275  1.00  0.00    -0.000 C 
BRANCH  14  15
ATOM     15  C   UNL     1     186.211 185.493 168.765  1.00  0.00    -0.000 C 
BRANCH  15  16
ATOM     16  C   UNL     1     187.165 184.855 167.739  1.00  0.00    -0.000 C 
BRANCH  16  17
ATOM     17  C   UNL     1     188.098 185.878 167.076  1.00  0.00    -0.003 C 
ATOM     18  C   UNL     1     189.439 185.245 166.715  1.00  0.00     0.004 C 
ENDBRANCH  16  17
ENDBRANCH  15  16
ENDBRANCH  14  15
ENDBRANCH  13  14
ENDBRANCH  12  13
ENDBRANCH  11  12
ENDBRANCH   1  11
TORSDOF 14
ENDMDL
MODEL 2
REMARK VINA RESULT:    -3.620      0.674      2.140
REMARK INTER + INTRA:          -9.047
REMARK INTER:                  -6.700
REMARK INTRA:                  -2.347
REMARK UNBOUND:                -2.465
REMARK SMILES CCCCCCCCCCCCCCCC(=O)[O-]
REMARK SMILES IDX 9 1 10 2 11 3 12 4 13 5 14 6 15 7 16 8 17 9 18 10 8 11 7 12
REMARK SMILES IDX 6 13 5 14 4 15 3 16 2 17 1 18
REMARK H PARENT
REMARK Flexibility Score: inf
ROOT
ATOM      1  C   UNL     1     189.670 187.873 170.342  1.00  0.00     0.000 C 
ENDROOT
BRANCH   1   2
ATOM      2  C   UNL     1     190.141 186.416 170.181  1.00  0.00     0.000 C 
BRANCH   2   3
ATOM      3  C   UNL     1     189.326 185.376 170.971  1.00  0.00     0.000 C 
BRANCH   3   4
ATOM      4  C   UNL     1     188.448 186.005 172.064  1.00  0.00     0.000 C 
BRANCH   4   5
ATOM      5  C   UNL     1     188.734 185.367 173.432  1.00  0.00     0.000 C 
BRANCH   5   6
ATOM      6  C   UNL     1     190.007 184.502 173.433  1.00  0.00     0.006 C 
BRANCH   6   7
ATOM      7  C   UNL     1     191.092 184.972 174.415  1.00  0.00     0.053 C 
BRANCH   7   8
ATOM      8  C   UNL     1     191.213 186.465 174.443  1.00  0.00     0.041 C 
ATOM      9  O   UNL     1     190.965 187.102 175.499  1.00  0.00    -0.550 OA
ATOM     10  O   UNL     1     191.570 187.155 173.290  1.00  0.00    -0.550 OA
ENDBRANCH   7   8
ENDBRANCH   6   7
ENDBRANCH   5   6
ENDBRANCH   4   5
ENDBRANCH   3   4
ENDBRANCH   2   3
ENDBRANCH   1   2
BRANCH   1  11
ATOM     11  C   UNL     1     189.317 188.540 169.001  1.00  0.00     0.000 C 
BRANCH  11  12
ATOM     12  C   UNL     1     187.870 189.060 168.966  1.00  0.00    -0.000 C 
BRANCH  12  13
ATOM     13  C   UNL     1     187.108 188.765 170.269  1.00  0.00    -0.000 C 
BRANCH  13  14
ATOM     14  C   UNL     1     185.944 187.777 170.069  1.00  0.00    -0.000 C 
BRANCH  14  15
ATOM     15  C   UNL     1     185.930 187.046 168.711  1.00  0.00    -0.000 C 
BRANCH  15  16
ATOM     16  C   UNL     1     186.372 185.571 168.759  1.00  0.00    -0.000 C 
BRANCH  16  17
ATOM     17  C   UNL     1     186.864 185.053 167.400  1.00  0.00    -0.003 C 
ATOM     18  C   UNL     1     188.381 185.178 167.282  1.00  0.00     0.004 C 
ENDBRANCH  16  17
ENDBRANCH  15  16
ENDBRANCH  14  15
ENDBRANCH  13  14
ENDBRANCH  12  13
ENDBRANCH  11  12
ENDBRANCH   1  11
TORSDOF 14
ENDMDL
MODEL 3
REMARK VINA RESULT:    -3.598      1.602      3.234
REMARK INTER + INTRA:          -9.007
REMARK INTER:                  -6.617
REMARK INTRA:                  -2.390
REMARK UNBOUND:                -2.465
REMARK SMILES CCCCCCCCCCCCCCCC(=O)[O-]
REMARK SMILES IDX 9 1 10 2 11 3 12 4 13 5 14 6 15 7 16 8 17 9 18 10 8 11 7 12
REMARK SMILES IDX 6 13 5 14 4 15 3 16 2 17 1 18
REMARK H PARENT
REMARK Flexibility Score: inf
ROOT
ATOM      1  C   UNL     1     185.107 187.293 168.622  1.00  0.00     0.000 C 
ENDROOT
BRANCH   1   2
ATOM      2  C   UNL     1     185.721 187.523 170.015  1.00  0.00     0.000 C 
BRANCH   2   3
ATOM      3  C   UNL     1     186.926 188.481 170.047  1.00  0.00     0.000 C 
BRANCH   3   4
ATOM      4  C   UNL     1     188.116 187.921 170.840  1.00  0.00     0.000 C 
BRANCH   4   5
ATOM      5  C   UNL     1     187.797 186.527 171.398  1.00  0.00     0.000 C 
BRANCH   5   6
ATOM      6  C   UNL     1     189.058 185.676 171.638  1.00  0.00     0.006 C 
BRANCH   6   7
ATOM      7  C   UNL     1     189.596 185.734 173.077  1.00  0.00     0.053 C 
BRANCH   7   8
ATOM      8  C   UNL     1     189.885 184.369 173.621  1.00  0.00     0.041 C 
ATOM      9  O   UNL     1     191.072 184.014 173.846  1.00  0.00    -0.550 OA
ATOM     10  O   UNL     1     188.844 183.477 173.850  1.00  0.00    -0.550 OA
ENDBRANCH   7   8
ENDBRANCH   6   7
ENDBRANCH   5   6
ENDBRANCH   4   5
ENDBRANCH   3   4
ENDBRANCH   2   3
ENDBRANCH   1   2
BRANCH   1  11
ATOM     11  C   UNL     1     185.996 186.429 167.711  1.00  0.00     0.000 C 
BRANCH  11  12
ATOM     12  C   UNL     1     186.244 185.026 168.290  1.00  0.00    -0.000 C 
BRANCH  12  13
ATOM     13  C   UNL     1     187.738 184.664 168.332  1.00  0.00    -0.000 C 
BRANCH  13  14
ATOM     14  C   UNL     1     188.602 185.597 167.462  1.00  0.00    -0.000 C 
BRANCH  14  15
ATOM     15  C   UNL     1     190.013 185.888 168.014  1.00  0.00    -0.000 C 
BRANCH  15  16
ATOM     16  C   UNL     1     190.363 187.380 168.158  1.00  0.00    -0.000 C 
BRANCH  16  17
ATOM     17  C   UNL     1     189.465 188.287 167.306  1.00  0.00    -0.003 C 
ATOM     18  C   UNL     1     190.279 189.386 166.628  1.00  0.00     0.004 C 
ENDBRANCH  16  17
ENDBRANCH  15  16
ENDBRANCH  14  15
ENDBRANCH  13  14
ENDBRANCH  12  13
ENDBRANCH  11  12
ENDBRANCH   1  11
TORSDOF 14
ENDMDL
MODEL 4
REMARK VINA RESULT:    -3.507     12.198     14.780
REMARK INTER + INTRA:          -8.843
REMARK INTER:                  -6.635
REMARK INTRA:                  -2.208
REMARK UNBOUND:                -2.465
REMARK SMILES CCCCCCCCCCCCCCCC(=O)[O-]
REMARK SMILES IDX 9 1 10 2 11 3 12 4 13 5 14 6 15 7 16 8 17 9 18 10 8 11 7 12
REMARK SMILES IDX 6 13 5 14 4 15 3 16 2 17 1 18
REMARK H PARENT
REMARK Flexibility Score: inf
ROOT
ATOM      1  C   UNL     1     180.170 194.538 178.412  1.00  0.00     0.000 C 
ENDROOT
BRANCH   1   2
ATOM      2  C   UNL     1     178.968 195.209 177.722  1.00  0.00     0.000 C 
BRANCH   2   3
ATOM      3  C   UNL     1     179.324 196.365 176.770  1.00  0.00     0.000 C 
BRANCH   3   4
ATOM      4  C   UNL     1     180.098 197.497 177.463  1.00  0.00     0.000 C 
BRANCH   4   5
ATOM      5  C   UNL     1     181.358 197.868 176.666  1.00  0.00     0.000 C 
BRANCH   5   6
ATOM      6  C   UNL     1     181.279 197.438 175.190  1.00  0.00     0.006 C 
BRANCH   6   7
ATOM      7  C   UNL     1     182.491 196.628 174.701  1.00  0.00     0.053 C 
BRANCH   7   8
ATOM      8  C   UNL     1     182.080 195.434 173.898  1.00  0.00     0.041 C 
ATOM      9  O   UNL     1     182.614 194.313 174.108  1.00  0.00    -0.550 OA
ATOM     10  O   UNL     1     181.127 195.565 172.894  1.00  0.00    -0.550 OA
ENDBRANCH   7   8
ENDBRANCH   6   7
ENDBRANCH   5   6
ENDBRANCH   4   5
ENDBRANCH   3   4
ENDBRANCH   2   3
ENDBRANCH   1   2
BRANCH   1  11
ATOM     11  C   UNL     1     181.188 193.961 177.413  1.00  0.00     0.000 C 
BRANCH  11  12
ATOM     12  C   UNL     1     182.617 194.472 177.669  1.00  0.00    -0.000 C 
BRANCH  12  13
ATOM     13  C   UNL     1     182.753 195.178 179.028  1.00  0.00    -0.000 C 
BRANCH  13  14
ATOM     14  C   UNL     1     183.605 194.380 180.032  1.00  0.00    -0.000 C 
BRANCH  14  15
ATOM     15  C   UNL     1     182.933 194.108 181.394  1.00  0.00    -0.000 C 
BRANCH  15  16
ATOM     16  C   UNL     1     181.759 195.043 181.740  1.00  0.00    -0.000 C 
BRANCH  16  17
ATOM     17  C   UNL     1     180.647 194.335 182.528  1.00  0.00    -0.003 C 
ATOM     18  C   UNL     1     180.014 193.219 181.702  1.00  0.00     0.004 C 
ENDBRANCH  16  17
ENDBRANCH  15  16
ENDBRANCH  14  15
ENDBRANCH  13  14
ENDBRANCH  12  13
ENDBRANCH  11  12
ENDBRANCH   1  11
TORSDOF 14
ENDMDL
MODEL 5
REMARK VINA RESULT:    -3.496      1.444      3.221
REMARK INTER + INTRA:          -8.822
REMARK INTER:                  -6.251
REMARK INTRA:                  -2.571
REMARK UNBOUND:                -2.465
REMARK SMILES CCCCCCCCCCCCCCCC(=O)[O-]
REMARK SMILES IDX 9 1 10 2 11 3 12 4 13 5 14 6 15 7 16 8 17 9 18 10 8 11 7 12
REMARK SMILES IDX 6 13 5 14 4 15 3 16 2 17 1 18
REMARK H PARENT
REMARK Flexibility Score: inf
ROOT
ATOM      1  C   UNL     1     190.167 188.187 167.366  1.00  0.00     0.000 C 
ENDROOT
BRANCH   1   2
ATOM      2  C   UNL     1     188.952 188.684 168.170  1.00  0.00     0.000 C 
BRANCH   2   3
ATOM      3  C   UNL     1     189.164 188.761 169.693  1.00  0.00     0.000 C 
BRANCH   3   4
ATOM      4  C   UNL     1     187.876 188.507 170.491  1.00  0.00     0.000 C 
BRANCH   4   5
ATOM      5  C   UNL     1     187.939 187.156 171.218  1.00  0.00     0.000 C 
BRANCH   5   6
ATOM      6  C   UNL     1     189.377 186.626 171.369  1.00  0.00     0.006 C 
BRANCH   6   7
ATOM      7  C   UNL     1     189.472 185.226 171.997  1.00  0.00     0.053 C 
BRANCH   7   8
ATOM      8  C   UNL     1     189.153 185.245 173.460  1.00  0.00     0.041 C 
ATOM      9  O   UNL     1     188.043 184.821 173.873  1.00  0.00    -0.550 OA
ATOM     10  O   UNL     1     190.073 185.762 174.365  1.00  0.00    -0.550 OA
ENDBRANCH   7   8
ENDBRANCH   6   7
ENDBRANCH   5   6
ENDBRANCH   4   5
ENDBRANCH   3   4
ENDBRANCH   2   3
ENDBRANCH   1   2
BRANCH   1  11
ATOM     11  C   UNL     1     190.977 187.110 168.109  1.00  0.00     0.000 C 
BRANCH  11  12
ATOM     12  C   UNL     1     190.371 185.705 167.950  1.00  0.00    -0.000 C 
BRANCH  12  13
ATOM     13  C   UNL     1     189.634 185.532 166.611  1.00  0.00    -0.000 C 
BRANCH  13  14
ATOM     14  C   UNL     1     188.147 185.175 166.791  1.00  0.00    -0.000 C 
BRANCH  14  15
ATOM     15  C   UNL     1     187.678 185.035 168.254  1.00  0.00    -0.000 C 
BRANCH  15  16
ATOM     16  C   UNL     1     186.187 185.336 168.493  1.00  0.00    -0.000 C 
BRANCH  16  17
ATOM     17  C   UNL     1     185.770 186.722 167.981  1.00  0.00    -0.003 C 
ATOM     18  C   UNL     1     184.793 187.392 168.943  1.00  0.00     0.004 C 
ENDBRANCH  16  17
ENDBRANCH  15  16
ENDBRANCH  14  15
ENDBRANCH  13  14
ENDBRANCH  12  13
ENDBRANCH  11  12
ENDBRANCH   1  11
TORSDOF 14
ENDMDL
MODEL 6
REMARK VINA RESULT:    -3.491     11.031     13.334
REMARK INTER + INTRA:          -8.813
REMARK INTER:                  -6.275
REMARK INTRA:                  -2.538
REMARK UNBOUND:                -2.465
REMARK SMILES CCCCCCCCCCCCCCCC(=O)[O-]
REMARK SMILES IDX 9 1 10 2 11 3 12 4 13 5 14 6 15 7 16 8 17 9 18 10 8 11 7 12
REMARK SMILES IDX 6 13 5 14 4 15 3 16 2 17 1 18
REMARK H PARENT
REMARK Flexibility Score: inf
ROOT
ATOM      1  C   UNL     1     183.272 195.771 174.764  1.00  0.00     0.000 C 
ENDROOT
BRANCH   1   2
ATOM      2  C   UNL     1     182.665 194.357 174.821  1.00  0.00     0.000 C 
BRANCH   2   3
ATOM      3  C   UNL     1     181.779 193.978 173.620  1.00  0.00     0.000 C 
BRANCH   3   4
ATOM      4  C   UNL     1     180.327 193.672 174.018  1.00  0.00     0.000 C 
BRANCH   4   5
ATOM      5  C   UNL     1     179.352 194.625 173.311  1.00  0.00     0.000 C 
BRANCH   5   6
ATOM      6  C   UNL     1     179.946 195.248 172.035  1.00  0.00     0.006 C 
BRANCH   6   7
ATOM      7  C   UNL     1     179.210 194.864 170.741  1.00  0.00     0.053 C 
BRANCH   7   8
ATOM      8  C   UNL     1     179.596 193.498 170.262  1.00  0.00     0.041 C 
ATOM      9  O   UNL     1     178.904 192.496 170.580  1.00  0.00    -0.550 OA
ATOM     10  O   UNL     1     180.739 193.330 169.490  1.00  0.00    -0.550 OA
ENDBRANCH   7   8
ENDBRANCH   6   7
ENDBRANCH   5   6
ENDBRANCH   4   5
ENDBRANCH   3   4
ENDBRANCH   2   3
ENDBRANCH   1   2
BRANCH   1  11
ATOM     11  C   UNL     1     182.221 196.865 174.508  1.00  0.00     0.000 C 
BRANCH  11  12
ATOM     12  C   UNL     1     181.628 197.427 175.811  1.00  0.00    -0.000 C 
BRANCH  12  13
ATOM     13  C   UNL     1     180.129 197.114 175.957  1.00  0.00    -0.000 C 
BRANCH  13  14
ATOM     14  C   UNL     1     179.856 195.917 176.886  1.00  0.00    -0.000 C 
BRANCH  14  15
ATOM     15  C   UNL     1     180.870 195.734 178.035  1.00  0.00    -0.000 C 
BRANCH  15  16
ATOM     16  C   UNL     1     181.503 194.333 178.130  1.00  0.00    -0.000 C 
BRANCH  16  17
ATOM     17  C   UNL     1     182.932 194.363 178.690  1.00  0.00    -0.003 C 
ATOM     18  C   UNL     1     183.636 195.668 178.327  1.00  0.00     0.004 C 
ENDBRANCH  16  17
ENDBRANCH  15  16
ENDBRANCH  14  15
ENDBRANCH  13  14
ENDBRANCH  12  13
ENDBRANCH  11  12
ENDBRANCH   1  11
TORSDOF 14
ENDMDL
MODEL 7
REMARK VINA RESULT:    -3.450      1.498      4.003
REMARK INTER + INTRA:          -8.739
REMARK INTER:                  -6.181
REMARK INTRA:                  -2.558
REMARK UNBOUND:                -2.465
REMARK SMILES CCCCCCCCCCCCCCCC(=O)[O-]
REMARK SMILES IDX 9 1 10 2 11 3 12 4 13 5 14 6 15 7 16 8 17 9 18 10 8 11 7 12
REMARK SMILES IDX 6 13 5 14 4 15 3 16 2 17 1 18
REMARK H PARENT
REMARK Flexibility Score: inf
ROOT
ATOM      1  C   UNL     1     186.213 185.251 168.475  1.00  0.00     0.000 C 
ENDROOT
BRANCH   1   2
ATOM      2  C   UNL     1     185.712 186.664 168.124  1.00  0.00     0.000 C 
BRANCH   2   3
ATOM      3  C   UNL     1     184.947 187.383 169.250  1.00  0.00     0.000 C 
BRANCH   3   4
ATOM      4  C   UNL     1     185.800 187.605 170.509  1.00  0.00     0.000 C 
BRANCH   4   5
ATOM      5  C   UNL     1     187.145 188.254 170.152  1.00  0.00     0.000 C 
BRANCH   5   6
ATOM      6  C   UNL     1     188.338 187.582 170.857  1.00  0.00     0.006 C 
BRANCH   6   7
ATOM      7  C   UNL     1     187.972 186.318 171.652  1.00  0.00     0.053 C 
BRANCH   7   8
ATOM      8  C   UNL     1     189.084 185.885 172.557  1.00  0.00     0.041 C 
ATOM      9  O   UNL     1     189.023 184.778 173.152  1.00  0.00    -0.550 OA
ATOM     10  O   UNL     1     190.175 186.720 172.767  1.00  0.00    -0.550 OA
ENDBRANCH   7   8
ENDBRANCH   6   7
ENDBRANCH   5   6
ENDBRANCH   4   5
ENDBRANCH   3   4
ENDBRANCH   2   3
ENDBRANCH   1   2
BRANCH   1  11
ATOM     11  C   UNL     1     187.616 184.957 167.915  1.00  0.00     0.000 C 
BRANCH  11  12
ATOM     12  C   UNL     1     187.778 185.423 166.458  1.00  0.00    -0.000 C 
BRANCH  12  13
ATOM     13  C   UNL     1     189.085 186.201 166.233  1.00  0.00    -0.000 C 
BRANCH  13  14
ATOM     14  C   UNL     1     189.196 187.452 167.125  1.00  0.00    -0.000 C 
BRANCH  14  15
ATOM     15  C   UNL     1     190.486 187.545 167.967  1.00  0.00    -0.000 C 
BRANCH  15  16
ATOM     16  C   UNL     1     191.278 186.231 168.095  1.00  0.00    -0.000 C 
BRANCH  16  17
ATOM     17  C   UNL     1     191.333 185.707 169.537  1.00  0.00    -0.003 C 
ATOM     18  C   UNL     1     190.694 184.325 169.644  1.00  0.00     0.004 C 
ENDBRANCH  16  17
ENDBRANCH  15  16
ENDBRANCH  14  15
ENDBRANCH  13  14
ENDBRANCH  12  13
ENDBRANCH  11  12
ENDBRANCH   1  11
TORSDOF 14
ENDMDL
MODEL 8
REMARK VINA RESULT:    -3.428      1.994      2.804
REMARK INTER + INTRA:          -8.698
REMARK INTER:                  -6.293
REMARK INTRA:                  -2.405
REMARK UNBOUND:                -2.465
REMARK SMILES CCCCCCCCCCCCCCCC(=O)[O-]
REMARK SMILES IDX 9 1 10 2 11 3 12 4 13 5 14 6 15 7 16 8 17 9 18 10 8 11 7 12
REMARK SMILES IDX 6 13 5 14 4 15 3 16 2 17 1 18
REMARK H PARENT
REMARK Flexibility Score: inf
ROOT
ATOM      1  C   UNL     1     186.772 188.370 170.032  1.00  0.00     0.000 C 
ENDROOT
BRANCH   1   2
ATOM      2  C   UNL     1     187.949 187.805 170.848  1.00  0.00     0.000 C 
BRANCH   2   3
ATOM      3  C   UNL     1     187.667 186.470 171.562  1.00  0.00     0.000 C 
BRANCH   3   4
ATOM      4  C   UNL     1     188.891 185.921 172.312  1.00  0.00     0.000 C 
BRANCH   4   5
ATOM      5  C   UNL     1     190.121 186.810 172.080  1.00  0.00     0.000 C 
BRANCH   5   6
ATOM      6  C   UNL     1     191.449 186.060 172.290  1.00  0.00     0.006 C 
BRANCH   6   7
ATOM      7  C   UNL     1     191.326 184.529 172.236  1.00  0.00     0.053 C 
BRANCH   7   8
ATOM      8  C   UNL     1     191.701 183.984 170.893  1.00  0.00     0.041 C 
ATOM      9  O   UNL     1     192.882 184.094 170.471  1.00  0.00    -0.550 OA
ATOM     10  O   UNL     1     190.737 183.383 170.092  1.00  0.00    -0.550 OA
ENDBRANCH   7   8
ENDBRANCH   6   7
ENDBRANCH   5   6
ENDBRANCH   4   5
ENDBRANCH   3   4
ENDBRANCH   2   3
ENDBRANCH   1   2
BRANCH   1  11
ATOM     11  C   UNL     1     185.549 187.436 170.019  1.00  0.00     0.000 C 
BRANCH  11  12
ATOM     12  C   UNL     1     185.002 187.202 168.601  1.00  0.00    -0.000 C 
BRANCH  12  13
ATOM     13  C   UNL     1     185.986 186.423 167.713  1.00  0.00    -0.000 C 
BRANCH  13  14
ATOM     14  C   UNL     1     186.359 185.049 168.298  1.00  0.00    -0.000 C 
BRANCH  14  15
ATOM     15  C   UNL     1     187.869 184.807 168.495  1.00  0.00    -0.000 C 
BRANCH  15  16
ATOM     16  C   UNL     1     188.786 185.590 167.537  1.00  0.00    -0.000 C 
BRANCH  16  17
ATOM     17  C   UNL     1     189.946 186.289 168.262  1.00  0.00    -0.003 C 
ATOM     18  C   UNL     1     190.046 187.755 167.850  1.00  0.00     0.004 C 
ENDBRANCH  16  17
ENDBRANCH  15  16
ENDBRANCH  14  15
ENDBRANCH  13  14
ENDBRANCH  12  13
ENDBRANCH  11  12
ENDBRANCH   1  11
TORSDOF 14
ENDMDL
MODEL 9
REMARK VINA RESULT:    -3.371      1.440      3.187
REMARK INTER + INTRA:          -8.594
REMARK INTER:                  -5.958
REMARK INTRA:                  -2.636
REMARK UNBOUND:                -2.465
REMARK SMILES CCCCCCCCCCCCCCCC(=O)[O-]
REMARK SMILES IDX 9 1 10 2 11 3 12 4 13 5 14 6 15 7 16 8 17 9 18 10 8 11 7 12
REMARK SMILES IDX 6 13 5 14 4 15 3 16 2 17 1 18
REMARK H PARENT
REMARK Flexibility Score: inf
ROOT
ATOM      1  C   UNL     1     189.994 185.129 168.540  1.00  0.00     0.000 C 
ENDROOT
BRANCH   1   2
ATOM      2  C   UNL     1     189.742 184.227 169.762  1.00  0.00     0.000 C 
BRANCH   2   3
ATOM      3  C   UNL     1     190.112 184.850 171.121  1.00  0.00     0.000 C 
BRANCH   3   4
ATOM      4  C   UNL     1     191.280 185.844 171.027  1.00  0.00     0.000 C 
BRANCH   4   5
ATOM      5  C   UNL     1     191.234 186.854 172.183  1.00  0.00     0.000 C 
BRANCH   5   6
ATOM      6  C   UNL     1     190.256 186.442 173.299  1.00  0.00     0.006 C 
BRANCH   6   7
ATOM      7  C   UNL     1     190.929 186.119 174.643  1.00  0.00     0.053 C 
BRANCH   7   8
ATOM      8  C   UNL     1     191.663 184.815 174.603  1.00  0.00     0.041 C 
ATOM      9  O   UNL     1     191.039 183.741 174.395  1.00  0.00    -0.550 OA
ATOM     10  O   UNL     1     193.035 184.782 174.827  1.00  0.00    -0.550 OA
ENDBRANCH   7   8
ENDBRANCH   6   7
ENDBRANCH   5   6
ENDBRANCH   4   5
ENDBRANCH   3   4
ENDBRANCH   2   3
ENDBRANCH   1   2
BRANCH   1  11
ATOM     11  C   UNL     1     188.725 185.375 167.706  1.00  0.00     0.000 C 
BRANCH  11  12
ATOM     12  C   UNL     1     187.448 184.906 168.424  1.00  0.00    -0.000 C 
BRANCH  12  13
ATOM     13  C   UNL     1     186.246 185.824 168.145  1.00  0.00    -0.000 C 
BRANCH  13  14
ATOM     14  C   UNL     1     185.905 186.739 169.336  1.00  0.00    -0.000 C 
BRANCH  14  15
ATOM     15  C   UNL     1     186.764 186.520 170.599  1.00  0.00    -0.000 C 
BRANCH  15  16
ATOM     16  C   UNL     1     187.735 187.668 170.934  1.00  0.00    -0.000 C 
BRANCH  16  17
ATOM     17  C   UNL     1     187.950 188.628 169.756  1.00  0.00    -0.003 C 
ATOM     18  C   UNL     1     189.423 188.689 169.358  1.00  0.00     0.004 C 
ENDBRANCH  16  17
ENDBRANCH  15  16
ENDBRANCH  14  15
ENDBRANCH  13  14
ENDBRANCH  12  13
ENDBRANCH  11  12
ENDBRANCH   1  11
TORSDOF 14
ENDMDL
