MODEL 1
REMARK VINA RESULT:    -4.527      0.000      0.000
REMARK INTER + INTRA:         -15.532
REMARK INTER:                 -11.407
REMARK INTRA:                  -4.125
REMARK UNBOUND:                -4.125
REMARK SMILES CCCCCCCCCCCCCCCCCCCCCCCCCCCC(=O)[O-]
REMARK SMILES IDX 15 1 16 2 17 3 18 4 19 5 20 6 21 7 22 8 23 9 24 10 25 11
REMARK SMILES IDX 26 12 27 13 28 14 29 15 30 16 14 17 13 18 12 19 11 20 10 21
REMARK SMILES IDX 9 22 8 23 7 24 6 25 5 26 4 27 3 28 2 29 1 30
REMARK H PARENT
REMARK Flexibility Score: inf
ROOT
ATOM      1  C   UNL     1      -5.307  -2.352  -5.351  1.00  0.00     0.000 C 
ENDROOT
BRANCH   1   2
ATOM      2  C   UNL     1      -4.319  -2.053  -6.495  1.00  0.00     0.000 C 
BRANCH   2   3
ATOM      3  C   UNL     1      -3.762  -0.613  -6.479  1.00  0.00     0.000 C 
BRANCH   3   4
ATOM      4  C   UNL     1      -4.836   0.430  -6.120  1.00  0.00     0.000 C 
BRANCH   4   5
ATOM      5  C   UNL     1      -4.287   1.550  -5.212  1.00  0.00     0.000 C 
BRANCH   5   6
ATOM      6  C   UNL     1      -2.752   1.651  -5.224  1.00  0.00     0.000 C 
BRANCH   6   7
ATOM      7  C   UNL     1      -2.242   2.825  -6.074  1.00  0.00     0.000 C 
BRANCH   7   8
ATOM      8  C   UNL     1      -3.330   3.399  -6.995  1.00  0.00     0.000 C 
BRANCH   8   9
ATOM      9  C   UNL     1      -2.913   3.381  -8.474  1.00  0.00     0.000 C 
BRANCH   9  10
ATOM     10  C   UNL     1      -1.720   2.445  -8.696  1.00  0.00     0.000 C 
BRANCH  10  11
ATOM     11  C   UNL     1      -1.114   2.647 -10.093  1.00  0.00     0.000 C 
BRANCH  11  12
ATOM     12  C   UNL     1      -1.943   3.601 -10.968  1.00  0.00     0.006 C 
BRANCH  12  13
ATOM     13  C   UNL     1      -2.377   2.963 -12.295  1.00  0.00     0.053 C 
BRANCH  13  14
ATOM     14  C   UNL     1      -2.982   3.984 -13.207  1.00  0.00     0.041 C 
ATOM     15  O   UNL     1      -2.254   4.638 -14.000  1.00  0.00    -0.550 OA
ATOM     16  O   UNL     1      -4.352   4.221 -13.175  1.00  0.00    -0.550 OA
ENDBRANCH  13  14
ENDBRANCH  12  13
ENDBRANCH  11  12
ENDBRANCH  10  11
ENDBRANCH   9  10
ENDBRANCH   8   9
ENDBRANCH   7   8
ENDBRANCH   6   7
ENDBRANCH   5   6
ENDBRANCH   4   5
ENDBRANCH   3   4
ENDBRANCH   2   3
ENDBRANCH   1   2
BRANCH   1  17
ATOM     17  C   UNL     1      -5.175  -3.752  -4.722  1.00  0.00     0.000 C 
BRANCH  17  18
ATOM     18  C   UNL     1      -3.729  -4.236  -4.507  1.00  0.00     0.000 C 
BRANCH  18  19
ATOM     19  C   UNL     1      -3.108  -3.711  -3.201  1.00  0.00     0.000 C 
BRANCH  19  20
ATOM     20  C   UNL     1      -1.755  -3.018  -3.437  1.00  0.00     0.000 C 
BRANCH  20  21
ATOM     21  C   UNL     1      -1.877  -1.484  -3.475  1.00  0.00     0.000 C 
BRANCH  21  22
ATOM     22  C   UNL     1      -3.131  -0.973  -2.749  1.00  0.00    -0.000 C 
BRANCH  22  23
ATOM     23  C   UNL     1      -2.845  -0.544  -1.300  1.00  0.00    -0.000 C 
BRANCH  23  24
ATOM     24  C   UNL     1      -3.468  -1.495  -0.263  1.00  0.00    -0.000 C 
BRANCH  24  25
ATOM     25  C   UNL     1      -2.453  -2.469   0.374  1.00  0.00    -0.000 C 
BRANCH  25  26
ATOM     26  C   UNL     1      -2.989  -3.909   0.433  1.00  0.00    -0.000 C 
BRANCH  26  27
ATOM     27  C   UNL     1      -4.496  -3.925   0.721  1.00  0.00    -0.000 C 
BRANCH  27  28
ATOM     28  C   UNL     1      -5.312  -4.604  -0.395  1.00  0.00    -0.000 C 
BRANCH  28  29
ATOM     29  C   UNL     1      -6.360  -3.699  -1.068  1.00  0.00    -0.003 C 
ATOM     30  C   UNL     1      -7.210  -2.923  -0.062  1.00  0.00     0.004 C 
ENDBRANCH  28  29
ENDBRANCH  27  28
ENDBRANCH  26  27
ENDBRANCH  25  26
ENDBRANCH  24  25
ENDBRANCH  23  24
ENDBRANCH  22  23
ENDBRANCH  21  22
ENDBRANCH  20  21
ENDBRANCH  19  20
ENDBRANCH  18  19
ENDBRANCH  17  18
ENDBRANCH   1  17
TORSDOF 26
ENDMDL
MODEL 2
REMARK VINA RESULT:    -4.483      4.415     11.364
REMARK INTER + INTRA:         -15.423
REMARK INTER:                 -12.033
REMARK INTRA:                  -3.390
REMARK UNBOUND:                -4.125
REMARK SMILES CCCCCCCCCCCCCCCCCCCCCCCCCCCC(=O)[O-]
REMARK SMILES IDX 15 1 16 2 17 3 18 4 19 5 20 6 21 7 22 8 23 9 24 10 25 11
REMARK SMILES IDX 26 12 27 13 28 14 29 15 30 16 14 17 13 18 12 19 11 20 10 21
REMARK SMILES IDX 9 22 8 23 7 24 6 25 5 26 4 27 3 28 2 29 1 30
REMARK H PARENT
REMARK Flexibility Score: inf
ROOT
ATOM      1  C   UNL     1      -3.706   3.264  -7.300  1.00  0.00     0.000 C 
ENDROOT
BRANCH   1   2
ATOM      2  C   UNL     1      -4.677   2.241  -6.681  1.00  0.00     0.000 C 
BRANCH   2   3
ATOM      3  C   UNL     1      -4.368   1.899  -5.206  1.00  0.00     0.000 C 
BRANCH   3   4
ATOM      4  C   UNL     1      -3.823   0.470  -5.035  1.00  0.00     0.000 C 
BRANCH   4   5
ATOM      5  C   UNL     1      -3.929  -0.359  -6.332  1.00  0.00     0.000 C 
BRANCH   5   6
ATOM      6  C   UNL     1      -4.967  -1.492  -6.253  1.00  0.00     0.000 C 
BRANCH   6   7
ATOM      7  C   UNL     1      -4.328  -2.887  -6.336  1.00  0.00     0.000 C 
BRANCH   7   8
ATOM      8  C   UNL     1      -4.531  -3.702  -5.049  1.00  0.00     0.000 C 
BRANCH   8   9
ATOM      9  C   UNL     1      -3.262  -3.753  -4.183  1.00  0.00     0.000 C 
BRANCH   9  10
ATOM     10  C   UNL     1      -3.558  -3.299  -2.750  1.00  0.00     0.000 C 
BRANCH  10  11
ATOM     11  C   UNL     1      -4.818  -3.989  -2.203  1.00  0.00     0.000 C 
BRANCH  11  12
ATOM     12  C   UNL     1      -5.253  -3.437  -0.836  1.00  0.00     0.006 C 
BRANCH  12  13
ATOM     13  C   UNL     1      -6.165  -4.405  -0.069  1.00  0.00     0.053 C 
BRANCH  13  14
ATOM     14  C   UNL     1      -7.574  -3.899  -0.037  1.00  0.00     0.041 C 
ATOM     15  O   UNL     1      -7.805  -2.661  -0.036  1.00  0.00    -0.550 OA
ATOM     16  O   UNL     1      -8.635  -4.797   0.001  1.00  0.00    -0.550 OA
ENDBRANCH  13  14
ENDBRANCH  12  13
ENDBRANCH  11  12
ENDBRANCH  10  11
ENDBRANCH   9  10
ENDBRANCH   8   9
ENDBRANCH   7   8
ENDBRANCH   6   7
ENDBRANCH   5   6
ENDBRANCH   4   5
ENDBRANCH   3   4
ENDBRANCH   2   3
ENDBRANCH   1   2
BRANCH   1  17
ATOM     17  C   UNL     1      -2.444   3.556  -6.467  1.00  0.00     0.000 C 
BRANCH  17  18
ATOM     18  C   UNL     1      -1.120   3.097  -7.107  1.00  0.00     0.000 C 
BRANCH  18  19
ATOM     19  C   UNL     1      -1.173   1.650  -7.624  1.00  0.00     0.000 C 
BRANCH  19  20
ATOM     20  C   UNL     1      -0.871   1.559  -9.130  1.00  0.00     0.000 C 
BRANCH  20  21
ATOM     21  C   UNL     1      -0.012   2.734  -9.631  1.00  0.00     0.000 C 
BRANCH  21  22
ATOM     22  C   UNL     1      -0.609   3.413 -10.874  1.00  0.00    -0.000 C 
BRANCH  22  23
ATOM     23  C   UNL     1      -1.781   4.348 -10.533  1.00  0.00    -0.000 C 
BRANCH  23  24
ATOM     24  C   UNL     1      -3.133   3.820 -11.045  1.00  0.00    -0.000 C 
BRANCH  24  25
ATOM     25  C   UNL     1      -3.056   3.169 -12.442  1.00  0.00    -0.000 C 
BRANCH  25  26
ATOM     26  C   UNL     1      -3.984   3.858 -13.456  1.00  0.00    -0.000 C 
BRANCH  26  27
ATOM     27  C   UNL     1      -3.944   5.384 -13.291  1.00  0.00    -0.000 C 
BRANCH  27  28
ATOM     28  C   UNL     1      -2.808   6.043 -14.094  1.00  0.00    -0.000 C 
BRANCH  28  29
ATOM     29  C   UNL     1      -1.908   6.990 -13.280  1.00  0.00    -0.003 C 
ATOM     30  C   UNL     1      -2.607   7.560 -12.045  1.00  0.00     0.004 C 
ENDBRANCH  28  29
ENDBRANCH  27  28
ENDBRANCH  26  27
ENDBRANCH  25  26
ENDBRANCH  24  25
ENDBRANCH  23  24
ENDBRANCH  22  23
ENDBRANCH  21  22
ENDBRANCH  20  21
ENDBRANCH  19  20
ENDBRANCH  18  19
ENDBRANCH  17  18
ENDBRANCH   1  17
TORSDOF 26
ENDMDL
MODEL 3
REMARK VINA RESULT:    -4.455      1.594      3.127
REMARK INTER + INTRA:         -15.350
REMARK INTER:                 -12.514
REMARK INTRA:                  -2.836
REMARK UNBOUND:                -4.125
REMARK SMILES CCCCCCCCCCCCCCCCCCCCCCCCCCCC(=O)[O-]
REMARK SMILES IDX 15 1 16 2 17 3 18 4 19 5 20 6 21 7 22 8 23 9 24 10 25 11
REMARK SMILES IDX 26 12 27 13 28 14 29 15 30 16 14 17 13 18 12 19 11 20 10 21
REMARK SMILES IDX 9 22 8 23 7 24 6 25 5 26 4 27 3 28 2 29 1 30
REMARK H PARENT
REMARK Flexibility Score: inf
ROOT
ATOM      1  C   UNL     1      -5.603   0.824  -6.145  1.00  0.00     0.000 C 
ENDROOT
BRANCH   1   2
ATOM      2  C   UNL     1      -4.410   1.522  -5.465  1.00  0.00     0.000 C 
BRANCH   2   3
ATOM      3  C   UNL     1      -4.002   2.855  -6.130  1.00  0.00     0.000 C 
BRANCH   3   4
ATOM      4  C   UNL     1      -2.475   3.044  -6.180  1.00  0.00     0.000 C 
BRANCH   4   5
ATOM      5  C   UNL     1      -1.711   1.758  -5.804  1.00  0.00     0.000 C 
BRANCH   5   6
ATOM      6  C   UNL     1      -0.650   1.349  -6.840  1.00  0.00     0.000 C 
BRANCH   6   7
ATOM      7  C   UNL     1      -1.245   1.126  -8.239  1.00  0.00     0.000 C 
BRANCH   7   8
ATOM      8  C   UNL     1      -0.290   1.566  -9.360  1.00  0.00     0.000 C 
BRANCH   8   9
ATOM      9  C   UNL     1      -1.010   2.353 -10.466  1.00  0.00     0.000 C 
BRANCH   9  10
ATOM     10  C   UNL     1      -1.828   3.506  -9.875  1.00  0.00     0.000 C 
BRANCH  10  11
ATOM     11  C   UNL     1      -3.105   3.751 -10.694  1.00  0.00     0.000 C 
BRANCH  11  12
ATOM     12  C   UNL     1      -2.958   3.330 -12.165  1.00  0.00     0.006 C 
BRANCH  12  13
ATOM     13  C   UNL     1      -4.055   3.918 -13.063  1.00  0.00     0.053 C 
BRANCH  13  14
ATOM     14  C   UNL     1      -3.528   5.060 -13.874  1.00  0.00     0.041 C 
ATOM     15  O   UNL     1      -2.887   5.991 -13.318  1.00  0.00    -0.550 OA
ATOM     16  O   UNL     1      -3.751   5.100 -15.246  1.00  0.00    -0.550 OA
ENDBRANCH  13  14
ENDBRANCH  12  13
ENDBRANCH  11  12
ENDBRANCH  10  11
ENDBRANCH   9  10
ENDBRANCH   8   9
ENDBRANCH   7   8
ENDBRANCH   6   7
ENDBRANCH   5   6
ENDBRANCH   4   5
ENDBRANCH   3   4
ENDBRANCH   2   3
ENDBRANCH   1   2
BRANCH   1  17
ATOM     17  C   UNL     1      -5.385  -0.664  -6.480  1.00  0.00     0.000 C 
BRANCH  17  18
ATOM     18  C   UNL     1      -4.002  -1.223  -6.097  1.00  0.00     0.000 C 
BRANCH  18  19
ATOM     19  C   UNL     1      -4.025  -2.036  -4.791  1.00  0.00     0.000 C 
BRANCH  19  20
ATOM     20  C   UNL     1      -5.091  -3.145  -4.815  1.00  0.00     0.000 C 
BRANCH  20  21
ATOM     21  C   UNL     1      -5.048  -4.033  -3.558  1.00  0.00     0.000 C 
BRANCH  21  22
ATOM     22  C   UNL     1      -4.032  -3.533  -2.518  1.00  0.00    -0.000 C 
BRANCH  22  23
ATOM     23  C   UNL     1      -4.474  -3.818  -1.073  1.00  0.00    -0.000 C 
BRANCH  23  24
ATOM     24  C   UNL     1      -4.901  -2.547  -0.318  1.00  0.00    -0.000 C 
BRANCH  24  25
ATOM     25  C   UNL     1      -6.315  -2.635   0.296  1.00  0.00    -0.000 C 
BRANCH  25  26
ATOM     26  C   UNL     1      -7.274  -3.465  -0.572  1.00  0.00    -0.000 C 
BRANCH  26  27
ATOM     27  C   UNL     1      -8.499  -3.915   0.235  1.00  0.00    -0.000 C 
BRANCH  27  28
ATOM     28  C   UNL     1      -8.499  -5.427   0.530  1.00  0.00    -0.000 C 
BRANCH  28  29
ATOM     29  C   UNL     1      -7.365  -6.216  -0.148  1.00  0.00    -0.003 C 
ATOM     30  C   UNL     1      -6.204  -6.521   0.799  1.00  0.00     0.004 C 
ENDBRANCH  28  29
ENDBRANCH  27  28
ENDBRANCH  26  27
ENDBRANCH  25  26
ENDBRANCH  24  25
ENDBRANCH  23  24
ENDBRANCH  22  23
ENDBRANCH  21  22
ENDBRANCH  20  21
ENDBRANCH  19  20
ENDBRANCH  18  19
ENDBRANCH  17  18
ENDBRANCH   1  17
TORSDOF 26
ENDMDL
MODEL 4
REMARK VINA RESULT:    -4.429      4.015     10.016
REMARK INTER + INTRA:         -15.286
REMARK INTER:                 -11.366
REMARK INTRA:                  -3.920
REMARK UNBOUND:                -4.125
REMARK SMILES CCCCCCCCCCCCCCCCCCCCCCCCCCCC(=O)[O-]
REMARK SMILES IDX 15 1 16 2 17 3 18 4 19 5 20 6 21 7 22 8 23 9 24 10 25 11
REMARK SMILES IDX 26 12 27 13 28 14 29 15 30 16 14 17 13 18 12 19 11 20 10 21
REMARK SMILES IDX 9 22 8 23 7 24 6 25 5 26 4 27 3 28 2 29 1 30
REMARK H PARENT
REMARK Flexibility Score: inf
ROOT
ATOM      1  C   UNL     1      -4.837  -0.833  -5.892  1.00  0.00     0.000 C 
ENDROOT
BRANCH   1   2
ATOM      2  C   UNL     1      -4.412  -2.181  -6.505  1.00  0.00     0.000 C 
BRANCH   2   3
ATOM      3  C   UNL     1      -4.441  -3.359  -5.507  1.00  0.00     0.000 C 
BRANCH   3   4
ATOM      4  C   UNL     1      -3.876  -2.975  -4.127  1.00  0.00     0.000 C 
BRANCH   4   5
ATOM      5  C   UNL     1      -2.539  -3.681  -3.823  1.00  0.00     0.000 C 
BRANCH   5   6
ATOM      6  C   UNL     1      -1.384  -2.707  -3.535  1.00  0.00     0.000 C 
BRANCH   6   7
ATOM      7  C   UNL     1      -1.481  -1.413  -4.358  1.00  0.00     0.000 C 
BRANCH   7   8
ATOM      8  C   UNL     1      -1.282  -0.155  -3.497  1.00  0.00     0.000 C 
BRANCH   8   9
ATOM      9  C   UNL     1      -2.399   0.023  -2.457  1.00  0.00     0.000 C 
BRANCH   9  10
ATOM     10  C   UNL     1      -1.839  -0.057  -1.032  1.00  0.00     0.000 C 
BRANCH  10  11
ATOM     11  C   UNL     1      -2.414  -1.270  -0.283  1.00  0.00     0.000 C 
BRANCH  11  12
ATOM     12  C   UNL     1      -3.830  -1.641  -0.750  1.00  0.00     0.006 C 
BRANCH  12  13
ATOM     13  C   UNL     1      -4.415  -2.833   0.019  1.00  0.00     0.053 C 
BRANCH  13  14
ATOM     14  C   UNL     1      -5.848  -3.057  -0.351  1.00  0.00     0.041 C 
ATOM     15  O   UNL     1      -6.770  -2.544   0.336  1.00  0.00    -0.550 OA
ATOM     16  O   UNL     1      -6.166  -3.843  -1.454  1.00  0.00    -0.550 OA
ENDBRANCH  13  14
ENDBRANCH  12  13
ENDBRANCH  11  12
ENDBRANCH  10  11
ENDBRANCH   9  10
ENDBRANCH   8   9
ENDBRANCH   7   8
ENDBRANCH   6   7
ENDBRANCH   5   6
ENDBRANCH   4   5
ENDBRANCH   3   4
ENDBRANCH   2   3
ENDBRANCH   1   2
BRANCH   1  17
ATOM     17  C   UNL     1      -4.044   0.390  -6.389  1.00  0.00     0.000 C 
BRANCH  17  18
ATOM     18  C   UNL     1      -3.972   1.567  -5.399  1.00  0.00     0.000 C 
BRANCH  18  19
ATOM     19  C   UNL     1      -4.062   2.939  -6.089  1.00  0.00     0.000 C 
BRANCH  19  20
ATOM     20  C   UNL     1      -2.792   3.270  -6.893  1.00  0.00     0.000 C 
BRANCH  20  21
ATOM     21  C   UNL     1      -1.502   2.974  -6.107  1.00  0.00     0.000 C 
BRANCH  21  22
ATOM     22  C   UNL     1      -0.487   2.159  -6.924  1.00  0.00    -0.000 C 
BRANCH  22  23
ATOM     23  C   UNL     1      -1.133   1.432  -8.116  1.00  0.00    -0.000 C 
BRANCH  23  24
ATOM     24  C   UNL     1      -0.465   1.780  -9.458  1.00  0.00    -0.000 C 
BRANCH  24  25
ATOM     25  C   UNL     1      -0.696   3.239  -9.906  1.00  0.00    -0.000 C 
BRANCH  25  26
ATOM     26  C   UNL     1      -2.075   3.435 -10.557  1.00  0.00    -0.000 C 
BRANCH  26  27
ATOM     27  C   UNL     1      -2.149   2.726 -11.917  1.00  0.00    -0.000 C 
BRANCH  27  28
ATOM     28  C   UNL     1      -3.377   3.145 -12.745  1.00  0.00    -0.000 C 
BRANCH  28  29
ATOM     29  C   UNL     1      -3.521   4.663 -12.963  1.00  0.00    -0.003 C 
ATOM     30  C   UNL     1      -4.156   5.012 -14.309  1.00  0.00     0.004 C 
ENDBRANCH  28  29
ENDBRANCH  27  28
ENDBRANCH  26  27
ENDBRANCH  25  26
ENDBRANCH  24  25
ENDBRANCH  23  24
ENDBRANCH  22  23
ENDBRANCH  21  22
ENDBRANCH  20  21
ENDBRANCH  19  20
ENDBRANCH  18  19
ENDBRANCH  17  18
ENDBRANCH   1  17
TORSDOF 26
ENDMDL
MODEL 5
REMARK VINA RESULT:    -4.390      1.603      3.448
REMARK INTER + INTRA:         -15.189
REMARK INTER:                 -11.524
REMARK INTRA:                  -3.665
REMARK UNBOUND:                -4.125
REMARK SMILES CCCCCCCCCCCCCCCCCCCCCCCCCCCC(=O)[O-]
REMARK SMILES IDX 15 1 16 2 17 3 18 4 19 5 20 6 21 7 22 8 23 9 24 10 25 11
REMARK SMILES IDX 26 12 27 13 28 14 29 15 30 16 14 17 13 18 12 19 11 20 10 21
REMARK SMILES IDX 9 22 8 23 7 24 6 25 5 26 4 27 3 28 2 29 1 30
REMARK H PARENT
REMARK Flexibility Score: inf
ROOT
ATOM      1  C   UNL     1      -5.126  -0.261  -6.128  1.00  0.00     0.000 C 
ENDROOT
BRANCH   1   2
ATOM      2  C   UNL     1      -4.721   1.121  -5.582  1.00  0.00     0.000 C 
BRANCH   2   3
ATOM      3  C   UNL     1      -4.740   2.244  -6.643  1.00  0.00     0.000 C 
BRANCH   3   4
ATOM      4  C   UNL     1      -3.863   3.445  -6.245  1.00  0.00     0.000 C 
BRANCH   4   5
ATOM      5  C   UNL     1      -2.359   3.163  -6.438  1.00  0.00     0.000 C 
BRANCH   5   6
ATOM      6  C   UNL     1      -2.015   2.597  -7.826  1.00  0.00     0.000 C 
BRANCH   6   7
ATOM      7  C   UNL     1      -1.352   3.637  -8.743  1.00  0.00     0.000 C 
BRANCH   7   8
ATOM      8  C   UNL     1      -2.075   3.774 -10.092  1.00  0.00     0.000 C 
BRANCH   8   9
ATOM      9  C   UNL     1      -1.360   3.009 -11.218  1.00  0.00     0.000 C 
BRANCH   9  10
ATOM     10  C   UNL     1      -2.336   2.656 -12.346  1.00  0.00     0.000 C 
BRANCH  10  11
ATOM     11  C   UNL     1      -3.643   3.452 -12.212  1.00  0.00     0.000 C 
BRANCH  11  12
ATOM     12  C   UNL     1      -4.051   4.151 -13.519  1.00  0.00     0.006 C 
BRANCH  12  13
ATOM     13  C   UNL     1      -3.870   5.674 -13.459  1.00  0.00     0.053 C 
BRANCH  13  14
ATOM     14  C   UNL     1      -2.437   6.032 -13.216  1.00  0.00     0.041 C 
ATOM     15  O   UNL     1      -2.107   6.660 -12.175  1.00  0.00    -0.550 OA
ATOM     16  O   UNL     1      -1.465   5.679 -14.145  1.00  0.00    -0.550 OA
ENDBRANCH  13  14
ENDBRANCH  12  13
ENDBRANCH  11  12
ENDBRANCH  10  11
ENDBRANCH   9  10
ENDBRANCH   8   9
ENDBRANCH   7   8
ENDBRANCH   6   7
ENDBRANCH   5   6
ENDBRANCH   4   5
ENDBRANCH   3   4
ENDBRANCH   2   3
ENDBRANCH   1   2
BRANCH   1  17
ATOM     17  C   UNL     1      -3.962  -1.249  -6.335  1.00  0.00     0.000 C 
BRANCH  17  18
ATOM     18  C   UNL     1      -4.340  -2.736  -6.213  1.00  0.00     0.000 C 
BRANCH  18  19
ATOM     19  C   UNL     1      -5.219  -3.034  -4.987  1.00  0.00     0.000 C 
BRANCH  19  20
ATOM     20  C   UNL     1      -4.405  -3.604  -3.812  1.00  0.00     0.000 C 
BRANCH  20  21
ATOM     21  C   UNL     1      -2.957  -3.945  -4.208  1.00  0.00     0.000 C 
BRANCH  21  22
ATOM     22  C   UNL     1      -1.995  -3.920  -3.009  1.00  0.00    -0.000 C 
BRANCH  22  23
ATOM     23  C   UNL     1      -0.854  -2.905  -3.186  1.00  0.00    -0.000 C 
BRANCH  23  24
ATOM     24  C   UNL     1      -1.218  -1.761  -4.149  1.00  0.00    -0.000 C 
BRANCH  24  25
ATOM     25  C   UNL     1      -1.528  -0.426  -3.438  1.00  0.00    -0.000 C 
BRANCH  25  26
ATOM     26  C   UNL     1      -2.931  -0.415  -2.811  1.00  0.00    -0.000 C 
BRANCH  26  27
ATOM     27  C   UNL     1      -2.851  -0.352  -1.280  1.00  0.00    -0.000 C 
BRANCH  27  28
ATOM     28  C   UNL     1      -3.647  -1.476  -0.592  1.00  0.00    -0.000 C 
BRANCH  28  29
ATOM     29  C   UNL     1      -2.789  -2.489   0.189  1.00  0.00    -0.003 C 
ATOM     30  C   UNL     1      -1.806  -1.820   1.150  1.00  0.00     0.004 C 
ENDBRANCH  28  29
ENDBRANCH  27  28
ENDBRANCH  26  27
ENDBRANCH  25  26
ENDBRANCH  24  25
ENDBRANCH  23  24
ENDBRANCH  22  23
ENDBRANCH  21  22
ENDBRANCH  20  21
ENDBRANCH  19  20
ENDBRANCH  18  19
ENDBRANCH  17  18
ENDBRANCH   1  17
TORSDOF 26
ENDMDL
MODEL 6
REMARK VINA RESULT:    -4.363      1.008      1.680
REMARK INTER + INTRA:         -15.120
REMARK INTER:                 -11.909
REMARK INTRA:                  -3.211
REMARK UNBOUND:                -4.125
REMARK SMILES CCCCCCCCCCCCCCCCCCCCCCCCCCCC(=O)[O-]
REMARK SMILES IDX 15 1 16 2 17 3 18 4 19 5 20 6 21 7 22 8 23 9 24 10 25 11
REMARK SMILES IDX 26 12 27 13 28 14 29 15 30 16 14 17 13 18 12 19 11 20 10 21
REMARK SMILES IDX 9 22 8 23 7 24 6 25 5 26 4 27 3 28 2 29 1 30
REMARK H PARENT
REMARK Flexibility Score: inf
ROOT
ATOM      1  C   UNL     1      -4.414  -2.773  -6.114  1.00  0.00     0.000 C 
ENDROOT
BRANCH   1   2
ATOM      2  C   UNL     1      -4.974  -1.378  -6.451  1.00  0.00     0.000 C 
BRANCH   2   3
ATOM      3  C   UNL     1      -3.962  -0.231  -6.241  1.00  0.00     0.000 C 
BRANCH   3   4
ATOM      4  C   UNL     1      -4.545   0.922  -5.403  1.00  0.00     0.000 C 
BRANCH   4   5
ATOM      5  C   UNL     1      -3.744   2.230  -5.566  1.00  0.00     0.000 C 
BRANCH   5   6
ATOM      6  C   UNL     1      -4.281   3.142  -6.683  1.00  0.00     0.000 C 
BRANCH   6   7
ATOM      7  C   UNL     1      -3.271   3.341  -7.823  1.00  0.00     0.000 C 
BRANCH   7   8
ATOM      8  C   UNL     1      -1.916   2.679  -7.527  1.00  0.00     0.000 C 
BRANCH   8   9
ATOM      9  C   UNL     1      -1.177   2.262  -8.808  1.00  0.00     0.000 C 
BRANCH   9  10
ATOM     10  C   UNL     1      -1.443   3.257  -9.943  1.00  0.00     0.000 C 
BRANCH  10  11
ATOM     11  C   UNL     1      -1.430   2.550 -11.308  1.00  0.00     0.000 C 
BRANCH  11  12
ATOM     12  C   UNL     1      -2.604   2.971 -12.207  1.00  0.00     0.006 C 
BRANCH  12  13
ATOM     13  C   UNL     1      -2.711   4.493 -12.369  1.00  0.00     0.053 C 
BRANCH  13  14
ATOM     14  C   UNL     1      -3.256   4.850 -13.717  1.00  0.00     0.041 C 
ATOM     15  O   UNL     1      -4.325   4.327 -14.129  1.00  0.00    -0.550 OA
ATOM     16  O   UNL     1      -2.577   5.757 -14.523  1.00  0.00    -0.550 OA
ENDBRANCH  13  14
ENDBRANCH  12  13
ENDBRANCH  11  12
ENDBRANCH  10  11
ENDBRANCH   9  10
ENDBRANCH   8   9
ENDBRANCH   7   8
ENDBRANCH   6   7
ENDBRANCH   5   6
ENDBRANCH   4   5
ENDBRANCH   3   4
ENDBRANCH   2   3
ENDBRANCH   1   2
BRANCH   1  17
ATOM     17  C   UNL     1      -5.102  -3.486  -4.933  1.00  0.00     0.000 C 
BRANCH  17  18
ATOM     18  C   UNL     1      -4.186  -3.790  -3.733  1.00  0.00     0.000 C 
BRANCH  18  19
ATOM     19  C   UNL     1      -2.706  -3.479  -4.013  1.00  0.00     0.000 C 
BRANCH  19  20
ATOM     20  C   UNL     1      -2.101  -2.535  -2.959  1.00  0.00     0.000 C 
BRANCH  20  21
ATOM     21  C   UNL     1      -2.946  -1.266  -2.749  1.00  0.00     0.000 C 
BRANCH  21  22
ATOM     22  C   UNL     1      -3.347  -1.062  -1.279  1.00  0.00    -0.000 C 
BRANCH  22  23
ATOM     23  C   UNL     1      -2.426  -1.813  -0.303  1.00  0.00    -0.000 C 
BRANCH  23  24
ATOM     24  C   UNL     1      -3.193  -2.777   0.618  1.00  0.00    -0.000 C 
BRANCH  24  25
ATOM     25  C   UNL     1      -3.423  -4.174   0.002  1.00  0.00    -0.000 C 
BRANCH  25  26
ATOM     26  C   UNL     1      -4.916  -4.533  -0.082  1.00  0.00    -0.000 C 
BRANCH  26  27
ATOM     27  C   UNL     1      -5.791  -3.367   0.400  1.00  0.00    -0.000 C 
BRANCH  27  28
ATOM     28  C   UNL     1      -7.098  -3.229  -0.403  1.00  0.00    -0.000 C 
BRANCH  28  29
ATOM     29  C   UNL     1      -8.359  -3.723   0.328  1.00  0.00    -0.003 C 
ATOM     30  C   UNL     1      -8.567  -5.233   0.201  1.00  0.00     0.004 C 
ENDBRANCH  28  29
ENDBRANCH  27  28
ENDBRANCH  26  27
ENDBRANCH  25  26
ENDBRANCH  24  25
ENDBRANCH  23  24
ENDBRANCH  22  23
ENDBRANCH  21  22
ENDBRANCH  20  21
ENDBRANCH  19  20
ENDBRANCH  18  19
ENDBRANCH  17  18
ENDBRANCH   1  17
TORSDOF 26
ENDMDL
MODEL 7
REMARK VINA RESULT:    -4.361      4.495      9.161
REMARK INTER + INTRA:         -15.114
REMARK INTER:                 -10.383
REMARK INTRA:                  -4.731
REMARK UNBOUND:                -4.125
REMARK SMILES CCCCCCCCCCCCCCCCCCCCCCCCCCCC(=O)[O-]
REMARK SMILES IDX 15 1 16 2 17 3 18 4 19 5 20 6 21 7 22 8 23 9 24 10 25 11
REMARK SMILES IDX 26 12 27 13 28 14 29 15 30 16 14 17 13 18 12 19 11 20 10 21
REMARK SMILES IDX 9 22 8 23 7 24 6 25 5 26 4 27 3 28 2 29 1 30
REMARK H PARENT
REMARK Flexibility Score: inf
ROOT
ATOM      1  C   UNL     1      -1.010  -1.178  -4.375  1.00  0.00     0.000 C 
ENDROOT
BRANCH   1   2
ATOM      2  C   UNL     1      -1.893  -1.573  -3.177  1.00  0.00     0.000 C 
BRANCH   2   3
ATOM      3  C   UNL     1      -2.905  -0.483  -2.759  1.00  0.00     0.000 C 
BRANCH   3   4
ATOM      4  C   UNL     1      -2.727  -0.045  -1.294  1.00  0.00     0.000 C 
BRANCH   4   5
ATOM      5  C   UNL     1      -1.243   0.086  -0.896  1.00  0.00     0.000 C 
BRANCH   5   6
ATOM      6  C   UNL     1      -1.017   0.121   0.626  1.00  0.00     0.000 C 
BRANCH   6   7
ATOM      7  C   UNL     1      -1.265  -1.240   1.293  1.00  0.00     0.000 C 
BRANCH   7   8
ATOM      8  C   UNL     1      -0.873  -2.418   0.387  1.00  0.00     0.000 C 
BRANCH   8   9
ATOM      9  C   UNL     1      -1.786  -3.638   0.587  1.00  0.00     0.000 C 
BRANCH   9  10
ATOM     10  C   UNL     1      -2.798  -3.760  -0.557  1.00  0.00     0.000 C 
BRANCH  10  11
ATOM     11  C   UNL     1      -4.171  -3.211  -0.137  1.00  0.00     0.000 C 
BRANCH  11  12
ATOM     12  C   UNL     1      -5.304  -3.662  -1.073  1.00  0.00     0.006 C 
BRANCH  12  13
ATOM     13  C   UNL     1      -6.282  -4.632  -0.396  1.00  0.00     0.053 C 
BRANCH  13  14
ATOM     14  C   UNL     1      -7.588  -3.960  -0.109  1.00  0.00     0.041 C 
ATOM     15  O   UNL     1      -8.658  -4.626  -0.103  1.00  0.00    -0.550 OA
ATOM     16  O   UNL     1      -7.627  -2.593   0.143  1.00  0.00    -0.550 OA
ENDBRANCH  13  14
ENDBRANCH  12  13
ENDBRANCH  11  12
ENDBRANCH  10  11
ENDBRANCH   9  10
ENDBRANCH   8   9
ENDBRANCH   7   8
ENDBRANCH   6   7
ENDBRANCH   5   6
ENDBRANCH   4   5
ENDBRANCH   3   4
ENDBRANCH   2   3
ENDBRANCH   1   2
BRANCH   1  17
ATOM     17  C   UNL     1      -1.039   0.317  -4.744  1.00  0.00     0.000 C 
BRANCH  17  18
ATOM     18  C   UNL     1      -0.234   0.694  -6.002  1.00  0.00     0.000 C 
BRANCH  18  19
ATOM     19  C   UNL     1      -0.816   0.088  -7.290  1.00  0.00     0.000 C 
BRANCH  19  20
ATOM     20  C   UNL     1      -1.330   1.167  -8.260  1.00  0.00     0.000 C 
BRANCH  20  21
ATOM     21  C   UNL     1      -1.493   2.539  -7.583  1.00  0.00     0.000 C 
BRANCH  21  22
ATOM     22  C   UNL     1      -2.686   3.333  -8.139  1.00  0.00    -0.000 C 
BRANCH  22  23
ATOM     23  C   UNL     1      -3.928   3.245  -7.236  1.00  0.00    -0.000 C 
BRANCH  23  24
ATOM     24  C   UNL     1      -3.587   2.847  -5.790  1.00  0.00    -0.000 C 
BRANCH  24  25
ATOM     25  C   UNL     1      -4.461   1.698  -5.240  1.00  0.00    -0.000 C 
BRANCH  25  26
ATOM     26  C   UNL     1      -5.381   1.103  -6.318  1.00  0.00    -0.000 C 
BRANCH  26  27
ATOM     27  C   UNL     1      -5.480  -0.423  -6.177  1.00  0.00    -0.000 C 
BRANCH  27  28
ATOM     28  C   UNL     1      -4.166  -1.143  -6.531  1.00  0.00    -0.000 C 
BRANCH  28  29
ATOM     29  C   UNL     1      -4.148  -2.648  -6.209  1.00  0.00    -0.003 C 
ATOM     30  C   UNL     1      -4.958  -2.999  -4.960  1.00  0.00     0.004 C 
ENDBRANCH  28  29
ENDBRANCH  27  28
ENDBRANCH  26  27
ENDBRANCH  25  26
ENDBRANCH  24  25
ENDBRANCH  23  24
ENDBRANCH  22  23
ENDBRANCH  21  22
ENDBRANCH  20  21
ENDBRANCH  19  20
ENDBRANCH  18  19
ENDBRANCH  17  18
ENDBRANCH   1  17
TORSDOF 26
ENDMDL
MODEL 8
REMARK VINA RESULT:    -4.275      4.515      9.049
REMARK INTER + INTRA:         -14.899
REMARK INTER:                 -10.267
REMARK INTRA:                  -4.632
REMARK UNBOUND:                -4.125
REMARK SMILES CCCCCCCCCCCCCCCCCCCCCCCCCCCC(=O)[O-]
REMARK SMILES IDX 15 1 16 2 17 3 18 4 19 5 20 6 21 7 22 8 23 9 24 10 25 11
REMARK SMILES IDX 26 12 27 13 28 14 29 15 30 16 14 17 13 18 12 19 11 20 10 21
REMARK SMILES IDX 9 22 8 23 7 24 6 25 5 26 4 27 3 28 2 29 1 30
REMARK H PARENT
REMARK Flexibility Score: inf
ROOT
ATOM      1  C   UNL     1      -1.197   0.605  -5.129  1.00  0.00     0.000 C 
ENDROOT
BRANCH   1   2
ATOM      2  C   UNL     1      -1.473  -0.440  -4.031  1.00  0.00     0.000 C 
BRANCH   2   3
ATOM      3  C   UNL     1      -2.700  -0.114  -3.151  1.00  0.00     0.000 C 
BRANCH   3   4
ATOM      4  C   UNL     1      -2.362  -0.114  -1.649  1.00  0.00     0.000 C 
BRANCH   4   5
ATOM      5  C   UNL     1      -0.921   0.360  -1.371  1.00  0.00     0.000 C 
BRANCH   5   6
ATOM      6  C   UNL     1      -0.240  -0.395  -0.216  1.00  0.00     0.000 C 
BRANCH   6   7
ATOM      7  C   UNL     1      -0.866  -0.078   1.150  1.00  0.00     0.000 C 
BRANCH   7   8
ATOM      8  C   UNL     1      -1.259  -1.346   1.925  1.00  0.00     0.000 C 
BRANCH   8   9
ATOM      9  C   UNL     1      -1.342  -2.583   1.017  1.00  0.00     0.000 C 
BRANCH   9  10
ATOM     10  C   UNL     1      -2.792  -2.871   0.613  1.00  0.00     0.000 C 
BRANCH  10  11
ATOM     11  C   UNL     1      -3.053  -4.383   0.541  1.00  0.00     0.000 C 
BRANCH  11  12
ATOM     12  C   UNL     1      -4.545  -4.724   0.407  1.00  0.00     0.006 C 
BRANCH  12  13
ATOM     13  C   UNL     1      -5.456  -3.517   0.676  1.00  0.00     0.053 C 
BRANCH  13  14
ATOM     14  C   UNL     1      -6.811  -3.726   0.075  1.00  0.00     0.041 C 
ATOM     15  O   UNL     1      -7.644  -2.781   0.042  1.00  0.00    -0.550 OA
ATOM     16  O   UNL     1      -7.158  -4.969  -0.443  1.00  0.00    -0.550 OA
ENDBRANCH  13  14
ENDBRANCH  12  13
ENDBRANCH  11  12
ENDBRANCH  10  11
ENDBRANCH   9  10
ENDBRANCH   8   9
ENDBRANCH   7   8
ENDBRANCH   6   7
ENDBRANCH   5   6
ENDBRANCH   4   5
ENDBRANCH   3   4
ENDBRANCH   2   3
ENDBRANCH   1   2
BRANCH   1  17
ATOM     17  C   UNL     1      -1.162   0.049  -6.566  1.00  0.00     0.000 C 
BRANCH  17  18
ATOM     18  C   UNL     1      -1.424   1.088  -7.673  1.00  0.00     0.000 C 
BRANCH  18  19
ATOM     19  C   UNL     1      -1.633   2.510  -7.125  1.00  0.00     0.000 C 
BRANCH  19  20
ATOM     20  C   UNL     1      -2.737   3.268  -7.882  1.00  0.00     0.000 C 
BRANCH  20  21
ATOM     21  C   UNL     1      -4.126   3.078  -7.245  1.00  0.00     0.000 C 
BRANCH  21  22
ATOM     22  C   UNL     1      -4.049   2.782  -5.739  1.00  0.00    -0.000 C 
BRANCH  22  23
ATOM     23  C   UNL     1      -4.862   1.539  -5.338  1.00  0.00    -0.000 C 
BRANCH  23  24
ATOM     24  C   UNL     1      -4.848   0.443  -6.418  1.00  0.00    -0.000 C 
BRANCH  24  25
ATOM     25  C   UNL     1      -5.128  -0.972  -5.869  1.00  0.00    -0.000 C 
BRANCH  25  26
ATOM     26  C   UNL     1      -4.128  -2.010  -6.405  1.00  0.00    -0.000 C 
BRANCH  26  27
ATOM     27  C   UNL     1      -4.362  -3.384  -5.762  1.00  0.00    -0.000 C 
BRANCH  27  28
ATOM     28  C   UNL     1      -5.212  -3.309  -4.480  1.00  0.00    -0.000 C 
BRANCH  28  29
ATOM     29  C   UNL     1      -4.603  -4.023  -3.260  1.00  0.00    -0.003 C 
ATOM     30  C   UNL     1      -3.116  -3.720  -3.074  1.00  0.00     0.004 C 
ENDBRANCH  28  29
ENDBRANCH  27  28
ENDBRANCH  26  27
ENDBRANCH  25  26
ENDBRANCH  24  25
ENDBRANCH  23  24
ENDBRANCH  22  23
ENDBRANCH  21  22
ENDBRANCH  20  21
ENDBRANCH  19  20
ENDBRANCH  18  19
ENDBRANCH  17  18
ENDBRANCH   1  17
TORSDOF 26
ENDMDL
MODEL 9
REMARK VINA RESULT:    -4.260      1.794      4.670
REMARK INTER + INTRA:         -14.859
REMARK INTER:                 -11.186
REMARK INTRA:                  -3.674
REMARK UNBOUND:                -4.125
REMARK SMILES CCCCCCCCCCCCCCCCCCCCCCCCCCCC(=O)[O-]
REMARK SMILES IDX 15 1 16 2 17 3 18 4 19 5 20 6 21 7 22 8 23 9 24 10 25 11
REMARK SMILES IDX 26 12 27 13 28 14 29 15 30 16 14 17 13 18 12 19 11 20 10 21
REMARK SMILES IDX 9 22 8 23 7 24 6 25 5 26 4 27 3 28 2 29 1 30
REMARK H PARENT
REMARK Flexibility Score: inf
ROOT
ATOM      1  C   UNL     1      -3.941   2.148  -5.873  1.00  0.00     0.000 C 
ENDROOT
BRANCH   1   2
ATOM      2  C   UNL     1      -3.243   2.961  -6.980  1.00  0.00     0.000 C 
BRANCH   2   3
ATOM      3  C   UNL     1      -1.701   2.877  -6.940  1.00  0.00     0.000 C 
BRANCH   3   4
ATOM      4  C   UNL     1      -1.175   1.501  -7.389  1.00  0.00     0.000 C 
BRANCH   4   5
ATOM      5  C   UNL     1      -0.925   1.435  -8.910  1.00  0.00     0.000 C 
BRANCH   5   6
ATOM      6  C   UNL     1      -0.436   2.765  -9.509  1.00  0.00     0.000 C 
BRANCH   6   7
ATOM      7  C   UNL     1      -0.927   2.983 -10.948  1.00  0.00     0.000 C 
BRANCH   7   8
ATOM      8  C   UNL     1      -1.447   4.410 -11.181  1.00  0.00     0.000 C 
BRANCH   8   9
ATOM      9  C   UNL     1      -2.943   4.437 -11.532  1.00  0.00     0.000 C 
BRANCH   9  10
ATOM     10  C   UNL     1      -3.312   3.265 -12.448  1.00  0.00     0.000 C 
BRANCH  10  11
ATOM     11  C   UNL     1      -4.149   3.744 -13.644  1.00  0.00     0.000 C 
BRANCH  11  12
ATOM     12  C   UNL     1      -4.033   5.258 -13.883  1.00  0.00     0.006 C 
BRANCH  12  13
ATOM     13  C   UNL     1      -3.205   5.600 -15.130  1.00  0.00     0.053 C 
BRANCH  13  14
ATOM     14  C   UNL     1      -3.940   5.228 -16.379  1.00  0.00     0.041 C 
ATOM     15  O   UNL     1      -5.200   5.203 -16.392  1.00  0.00    -0.550 OA
ATOM     16  O   UNL     1      -3.233   4.900 -17.531  1.00  0.00    -0.550 OA
ENDBRANCH  13  14
ENDBRANCH  12  13
ENDBRANCH  11  12
ENDBRANCH  10  11
ENDBRANCH   9  10
ENDBRANCH   8   9
ENDBRANCH   7   8
ENDBRANCH   6   7
ENDBRANCH   5   6
ENDBRANCH   4   5
ENDBRANCH   3   4
ENDBRANCH   2   3
ENDBRANCH   1   2
BRANCH   1  17
ATOM     17  C   UNL     1      -5.254   1.462  -6.294  1.00  0.00     0.000 C 
BRANCH  17  18
ATOM     18  C   UNL     1      -5.286  -0.064  -6.094  1.00  0.00     0.000 C 
BRANCH  18  19
ATOM     19  C   UNL     1      -3.950  -0.743  -6.440  1.00  0.00     0.000 C 
BRANCH  19  20
ATOM     20  C   UNL     1      -3.962  -2.248  -6.119  1.00  0.00     0.000 C 
BRANCH  20  21
ATOM     21  C   UNL     1      -5.271  -2.697  -5.445  1.00  0.00     0.000 C 
BRANCH  21  22
ATOM     22  C   UNL     1      -5.034  -3.700  -4.305  1.00  0.00    -0.000 C 
BRANCH  22  23
ATOM     23  C   UNL     1      -3.583  -4.209  -4.255  1.00  0.00    -0.000 C 
BRANCH  23  24
ATOM     24  C   UNL     1      -2.805  -3.671  -3.042  1.00  0.00    -0.000 C 
BRANCH  24  25
ATOM     25  C   UNL     1      -3.710  -3.163  -1.899  1.00  0.00    -0.000 C 
BRANCH  25  26
ATOM     26  C   UNL     1      -3.309  -1.757  -1.423  1.00  0.00    -0.000 C 
BRANCH  26  27
ATOM     27  C   UNL     1      -3.229  -0.777  -2.602  1.00  0.00    -0.000 C 
BRANCH  27  28
ATOM     28  C   UNL     1      -1.889  -0.022  -2.663  1.00  0.00    -0.000 C 
BRANCH  28  29
ATOM     29  C   UNL     1      -1.340   0.207  -4.083  1.00  0.00    -0.003 C 
ATOM     30  C   UNL     1      -0.529  -0.979  -4.605  1.00  0.00     0.004 C 
ENDBRANCH  28  29
ENDBRANCH  27  28
ENDBRANCH  26  27
ENDBRANCH  25  26
ENDBRANCH  24  25
ENDBRANCH  23  24
ENDBRANCH  22  23
ENDBRANCH  21  22
ENDBRANCH  20  21
ENDBRANCH  19  20
ENDBRANCH  18  19
ENDBRANCH  17  18
ENDBRANCH   1  17
TORSDOF 26
ENDMDL
