MODEL 1
REMARK VINA RESULT:    -5.602      0.000      0.000
REMARK INTER + INTRA:         -11.540
REMARK INTER:                 -10.187
REMARK INTRA:                  -1.353
REMARK UNBOUND:                -1.353
REMARK SMILES CCCCCCCCCCCCCCCC(=O)[O-]
REMARK SMILES IDX 9 1 10 2 11 3 12 4 13 5 14 6 15 7 16 8 17 9 18 10 8 11 7 12
REMARK SMILES IDX 6 13 5 14 4 15 3 16 2 17 1 18
REMARK H PARENT
REMARK Flexibility Score: inf
ROOT
ATOM      1  C   UNL     1       4.280  10.759  19.105  1.00  0.00     0.000 C 
ENDROOT
BRANCH   1   2
ATOM      2  C   UNL     1       5.530  11.386  18.456  1.00  0.00     0.000 C 
BRANCH   2   3
ATOM      3  C   UNL     1       5.595  11.273  16.920  1.00  0.00     0.000 C 
BRANCH   3   4
ATOM      4  C   UNL     1       5.434  12.603  16.162  1.00  0.00     0.000 C 
BRANCH   4   5
ATOM      5  C   UNL     1       4.008  12.822  15.637  1.00  0.00     0.000 C 
BRANCH   5   6
ATOM      6  C   UNL     1       3.834  12.195  14.245  1.00  0.00     0.006 C 
BRANCH   6   7
ATOM      7  C   UNL     1       3.055  10.874  14.297  1.00  0.00     0.053 C 
BRANCH   7   8
ATOM      8  C   UNL     1       3.831   9.747  13.689  1.00  0.00     0.041 C 
ATOM      9  O   UNL     1       5.051   9.892  13.415  1.00  0.00    -0.550 OA
ATOM     10  O   UNL     1       3.214   8.523  13.456  1.00  0.00    -0.550 OA
ENDBRANCH   7   8
ENDBRANCH   6   7
ENDBRANCH   5   6
ENDBRANCH   4   5
ENDBRANCH   3   4
ENDBRANCH   2   3
ENDBRANCH   1   2
BRANCH   1  11
ATOM     11  C   UNL     1       3.079  10.577  18.158  1.00  0.00     0.000 C 
BRANCH  11  12
ATOM     12  C   UNL     1       2.409   9.190  18.220  1.00  0.00    -0.000 C 
BRANCH  12  13
ATOM     13  C   UNL     1       2.616   8.307  16.972  1.00  0.00    -0.000 C 
BRANCH  13  14
ATOM     14  C   UNL     1       2.362   6.804  17.181  1.00  0.00    -0.000 C 
BRANCH  14  15
ATOM     15  C   UNL     1       0.958   6.505  17.733  1.00  0.00    -0.000 C 
BRANCH  15  16
ATOM     16  C   UNL     1       0.987   5.943  19.166  1.00  0.00    -0.000 C 
BRANCH  16  17
ATOM     17  C   UNL     1       1.214   4.424  19.268  1.00  0.00    -0.003 C 
ATOM     18  C   UNL     1       2.647   4.056  19.651  1.00  0.00     0.004 C 
ENDBRANCH  16  17
ENDBRANCH  15  16
ENDBRANCH  14  15
ENDBRANCH  13  14
ENDBRANCH  12  13
ENDBRANCH  11  12
ENDBRANCH   1  11
TORSDOF 14
ENDMDL
MODEL 2
REMARK VINA RESULT:    -5.422      2.723      6.416
REMARK INTER + INTRA:         -11.212
REMARK INTER:                 -10.265
REMARK INTRA:                  -0.947
REMARK UNBOUND:                -1.353
REMARK SMILES CCCCCCCCCCCCCCCC(=O)[O-]
REMARK SMILES IDX 9 1 10 2 11 3 12 4 13 5 14 6 15 7 16 8 17 9 18 10 8 11 7 12
REMARK SMILES IDX 6 13 5 14 4 15 3 16 2 17 1 18
REMARK H PARENT
REMARK Flexibility Score: inf
ROOT
ATOM      1  C   UNL     1       4.361  10.753  19.512  1.00  0.00     0.000 C 
ENDROOT
BRANCH   1   2
ATOM      2  C   UNL     1       3.141  10.693  18.572  1.00  0.00     0.000 C 
BRANCH   2   3
ATOM      3  C   UNL     1       3.119   9.493  17.604  1.00  0.00     0.000 C 
BRANCH   3   4
ATOM      4  C   UNL     1       1.829   8.655  17.635  1.00  0.00     0.000 C 
BRANCH   4   5
ATOM      5  C   UNL     1       2.087   7.155  17.429  1.00  0.00     0.000 C 
BRANCH   5   6
ATOM      6  C   UNL     1       0.927   6.318  17.989  1.00  0.00     0.006 C 
BRANCH   6   7
ATOM      7  C   UNL     1       1.226   5.778  19.394  1.00  0.00     0.053 C 
BRANCH   7   8
ATOM      8  C   UNL     1       1.834   4.410  19.346  1.00  0.00     0.041 C 
ATOM      9  O   UNL     1       1.582   3.638  18.384  1.00  0.00    -0.550 OA
ATOM     10  O   UNL     1       2.706   4.000  20.348  1.00  0.00    -0.550 OA
ENDBRANCH   7   8
ENDBRANCH   6   7
ENDBRANCH   5   6
ENDBRANCH   4   5
ENDBRANCH   3   4
ENDBRANCH   2   3
ENDBRANCH   1   2
BRANCH   1  11
ATOM     11  C   UNL     1       5.576  11.515  18.950  1.00  0.00     0.000 C 
BRANCH  11  12
ATOM     12  C   UNL     1       5.918  11.200  17.481  1.00  0.00    -0.000 C 
BRANCH  12  13
ATOM     13  C   UNL     1       5.795  12.392  16.509  1.00  0.00    -0.000 C 
BRANCH  13  14
ATOM     14  C   UNL     1       4.360  12.744  16.081  1.00  0.00    -0.000 C 
BRANCH  14  15
ATOM     15  C   UNL     1       4.122  12.555  14.573  1.00  0.00    -0.000 C 
BRANCH  15  16
ATOM     16  C   UNL     1       3.191  11.369  14.258  1.00  0.00    -0.000 C 
BRANCH  16  17
ATOM     17  C   UNL     1       3.824   9.977  14.435  1.00  0.00    -0.003 C 
ATOM     18  C   UNL     1       3.515   9.027  13.278  1.00  0.00     0.004 C 
ENDBRANCH  16  17
ENDBRANCH  15  16
ENDBRANCH  14  15
ENDBRANCH  13  14
ENDBRANCH  12  13
ENDBRANCH  11  12
ENDBRANCH   1  11
TORSDOF 14
ENDMDL
MODEL 3
REMARK VINA RESULT:    -5.412      1.602      2.035
REMARK INTER + INTRA:         -11.195
REMARK INTER:                  -9.870
REMARK INTRA:                  -1.325
REMARK UNBOUND:                -1.353
REMARK SMILES CCCCCCCCCCCCCCCC(=O)[O-]
REMARK SMILES IDX 9 1 10 2 11 3 12 4 13 5 14 6 15 7 16 8 17 9 18 10 8 11 7 12
REMARK SMILES IDX 6 13 5 14 4 15 3 16 2 17 1 18
REMARK H PARENT
REMARK Flexibility Score: inf
ROOT
ATOM      1  C   UNL     1       3.500  11.192  18.716  1.00  0.00     0.000 C 
ENDROOT
BRANCH   1   2
ATOM      2  C   UNL     1       4.809  11.532  19.457  1.00  0.00     0.000 C 
BRANCH   2   3
ATOM      3  C   UNL     1       6.102  11.173  18.698  1.00  0.00     0.000 C 
BRANCH   3   4
ATOM      4  C   UNL     1       6.114  11.569  17.211  1.00  0.00     0.000 C 
BRANCH   4   5
ATOM      5  C   UNL     1       5.741  10.406  16.280  1.00  0.00     0.000 C 
BRANCH   5   6
ATOM      6  C   UNL     1       4.588  10.801  15.345  1.00  0.00     0.006 C 
BRANCH   6   7
ATOM      7  C   UNL     1       4.330  12.314  15.349  1.00  0.00     0.053 C 
BRANCH   7   8
ATOM      8  C   UNL     1       3.002  12.654  14.745  1.00  0.00     0.041 C 
ATOM      9  O   UNL     1       2.446  13.750  15.013  1.00  0.00    -0.550 OA
ATOM     10  O   UNL     1       2.395  11.772  13.858  1.00  0.00    -0.550 OA
ENDBRANCH   7   8
ENDBRANCH   6   7
ENDBRANCH   5   6
ENDBRANCH   4   5
ENDBRANCH   3   4
ENDBRANCH   2   3
ENDBRANCH   1   2
BRANCH   1  11
ATOM     11  C   UNL     1       3.102   9.704  18.750  1.00  0.00     0.000 C 
BRANCH  11  12
ATOM     12  C   UNL     1       2.215   9.242  17.578  1.00  0.00    -0.000 C 
BRANCH  12  13
ATOM     13  C   UNL     1       2.750   8.027  16.792  1.00  0.00    -0.000 C 
BRANCH  13  14
ATOM     14  C   UNL     1       2.133   6.672  17.178  1.00  0.00    -0.000 C 
BRANCH  14  15
ATOM     15  C   UNL     1       0.870   6.814  18.044  1.00  0.00    -0.000 C 
BRANCH  15  16
ATOM     16  C   UNL     1       0.782   5.749  19.153  1.00  0.00    -0.000 C 
BRANCH  16  17
ATOM     17  C   UNL     1       1.357   4.371  18.781  1.00  0.00    -0.003 C 
ATOM     18  C   UNL     1       2.668   4.054  19.501  1.00  0.00     0.004 C 
ENDBRANCH  16  17
ENDBRANCH  15  16
ENDBRANCH  14  15
ENDBRANCH  13  14
ENDBRANCH  12  13
ENDBRANCH  11  12
ENDBRANCH   1  11
TORSDOF 14
ENDMDL
MODEL 4
REMARK VINA RESULT:    -5.397      2.322      3.751
REMARK INTER + INTRA:         -11.167
REMARK INTER:                 -10.224
REMARK INTRA:                  -0.943
REMARK UNBOUND:                -1.353
REMARK SMILES CCCCCCCCCCCCCCCC(=O)[O-]
REMARK SMILES IDX 9 1 10 2 11 3 12 4 13 5 14 6 15 7 16 8 17 9 18 10 8 11 7 12
REMARK SMILES IDX 6 13 5 14 4 15 3 16 2 17 1 18
REMARK H PARENT
REMARK Flexibility Score: inf
ROOT
ATOM      1  C   UNL     1       3.880   9.933  14.138  1.00  0.00     0.000 C 
ENDROOT
BRANCH   1   2
ATOM      2  C   UNL     1       3.074  11.241  14.010  1.00  0.00     0.000 C 
BRANCH   2   3
ATOM      3  C   UNL     1       3.851  12.525  14.364  1.00  0.00     0.000 C 
BRANCH   3   4
ATOM      4  C   UNL     1       3.984  12.811  15.870  1.00  0.00     0.000 C 
BRANCH   4   5
ATOM      5  C   UNL     1       5.424  12.658  16.381  1.00  0.00     0.000 C 
BRANCH   5   6
ATOM      6  C   UNL     1       5.631  11.281  17.031  1.00  0.00     0.006 C 
BRANCH   6   7
ATOM      7  C   UNL     1       6.079  11.391  18.494  1.00  0.00     0.053 C 
BRANCH   7   8
ATOM      8  C   UNL     1       4.922  11.289  19.440  1.00  0.00     0.041 C 
ATOM      9  O   UNL     1       5.074  10.761  20.572  1.00  0.00    -0.550 OA
ATOM     10  O   UNL     1       3.683  11.808  19.083  1.00  0.00    -0.550 OA
ENDBRANCH   7   8
ENDBRANCH   6   7
ENDBRANCH   5   6
ENDBRANCH   4   5
ENDBRANCH   3   4
ENDBRANCH   2   3
ENDBRANCH   1   2
BRANCH   1  11
ATOM     11  C   UNL     1       3.313   8.917  15.148  1.00  0.00     0.000 C 
BRANCH  11  12
ATOM     12  C   UNL     1       3.074   9.474  16.565  1.00  0.00    -0.000 C 
BRANCH  12  13
ATOM     13  C   UNL     1       2.175   8.603  17.467  1.00  0.00    -0.000 C 
BRANCH  13  14
ATOM     14  C   UNL     1       2.316   7.084  17.265  1.00  0.00    -0.000 C 
BRANCH  14  15
ATOM     15  C   UNL     1       1.039   6.311  17.634  1.00  0.00    -0.000 C 
BRANCH  15  16
ATOM     16  C   UNL     1       0.948   5.987  19.136  1.00  0.00    -0.000 C 
BRANCH  16  17
ATOM     17  C   UNL     1       1.156   4.505  19.498  1.00  0.00    -0.003 C 
ATOM     18  C   UNL     1       2.629   4.106  19.568  1.00  0.00     0.004 C 
ENDBRANCH  16  17
ENDBRANCH  15  16
ENDBRANCH  14  15
ENDBRANCH  13  14
ENDBRANCH  12  13
ENDBRANCH  11  12
ENDBRANCH   1  11
TORSDOF 14
ENDMDL
MODEL 5
REMARK VINA RESULT:    -5.393      2.781      6.498
REMARK INTER + INTRA:         -11.160
REMARK INTER:                  -9.714
REMARK INTRA:                  -1.446
REMARK UNBOUND:                -1.353
REMARK SMILES CCCCCCCCCCCCCCCC(=O)[O-]
REMARK SMILES IDX 9 1 10 2 11 3 12 4 13 5 14 6 15 7 16 8 17 9 18 10 8 11 7 12
REMARK SMILES IDX 6 13 5 14 4 15 3 16 2 17 1 18
REMARK H PARENT
REMARK Flexibility Score: inf
ROOT
ATOM      1  C   UNL     1       3.861   9.858  14.254  1.00  0.00     0.000 C 
ENDROOT
BRANCH   1   2
ATOM      2  C   UNL     1       3.472   8.906  15.402  1.00  0.00     0.000 C 
BRANCH   2   3
ATOM      3  C   UNL     1       2.835   9.588  16.630  1.00  0.00     0.000 C 
BRANCH   3   4
ATOM      4  C   UNL     1       2.155   8.631  17.625  1.00  0.00     0.000 C 
BRANCH   4   5
ATOM      5  C   UNL     1       2.342   7.153  17.254  1.00  0.00     0.000 C 
BRANCH   5   6
ATOM      6  C   UNL     1       1.139   6.316  17.714  1.00  0.00     0.006 C 
BRANCH   6   7
ATOM      7  C   UNL     1       1.268   5.870  19.177  1.00  0.00     0.053 C 
BRANCH   7   8
ATOM      8  C   UNL     1       1.868   4.502  19.290  1.00  0.00     0.041 C 
ATOM      9  O   UNL     1       2.641   4.226  20.245  1.00  0.00    -0.550 OA
ATOM     10  O   UNL     1       1.546   3.521  18.360  1.00  0.00    -0.550 OA
ENDBRANCH   7   8
ENDBRANCH   6   7
ENDBRANCH   5   6
ENDBRANCH   4   5
ENDBRANCH   3   4
ENDBRANCH   2   3
ENDBRANCH   1   2
BRANCH   1  11
ATOM     11  C   UNL     1       2.986  11.120  14.133  1.00  0.00     0.000 C 
BRANCH  11  12
ATOM     12  C   UNL     1       3.740  12.453  14.308  1.00  0.00    -0.000 C 
BRANCH  12  13
ATOM     13  C   UNL     1       3.408  13.228  15.600  1.00  0.00    -0.000 C 
BRANCH  13  14
ATOM     14  C   UNL     1       4.003  12.640  16.891  1.00  0.00    -0.000 C 
BRANCH  14  15
ATOM     15  C   UNL     1       5.478  12.232  16.737  1.00  0.00    -0.000 C 
BRANCH  15  16
ATOM     16  C   UNL     1       5.897  11.120  17.716  1.00  0.00    -0.000 C 
BRANCH  16  17
ATOM     17  C   UNL     1       5.754  11.475  19.207  1.00  0.00    -0.003 C 
ATOM     18  C   UNL     1       4.586  10.759  19.885  1.00  0.00     0.004 C 
ENDBRANCH  16  17
ENDBRANCH  15  16
ENDBRANCH  14  15
ENDBRANCH  13  14
ENDBRANCH  12  13
ENDBRANCH  11  12
ENDBRANCH   1  11
TORSDOF 14
ENDMDL
MODEL 6
REMARK VINA RESULT:    -5.319      2.774      6.648
REMARK INTER + INTRA:         -11.025
REMARK INTER:                  -9.599
REMARK INTRA:                  -1.426
REMARK UNBOUND:                -1.353
REMARK SMILES CCCCCCCCCCCCCCCC(=O)[O-]
REMARK SMILES IDX 9 1 10 2 11 3 12 4 13 5 14 6 15 7 16 8 17 9 18 10 8 11 7 12
REMARK SMILES IDX 6 13 5 14 4 15 3 16 2 17 1 18
REMARK H PARENT
REMARK Flexibility Score: inf
ROOT
ATOM      1  C   UNL     1       3.461  11.068  18.678  1.00  0.00     0.000 C 
ENDROOT
BRANCH   1   2
ATOM      2  C   UNL     1       2.976   9.606  18.756  1.00  0.00     0.000 C 
BRANCH   2   3
ATOM      3  C   UNL     1       2.088   9.148  17.582  1.00  0.00     0.000 C 
BRANCH   3   4
ATOM      4  C   UNL     1       2.709   8.067  16.680  1.00  0.00     0.000 C 
BRANCH   4   5
ATOM      5  C   UNL     1       2.483   6.644  17.213  1.00  0.00     0.000 C 
BRANCH   5   6
ATOM      6  C   UNL     1       1.121   6.531  17.914  1.00  0.00     0.006 C 
BRANCH   6   7
ATOM      7  C   UNL     1       1.239   5.923  19.317  1.00  0.00     0.053 C 
BRANCH   7   8
ATOM      8  C   UNL     1       1.741   4.512  19.271  1.00  0.00     0.041 C 
ATOM      9  O   UNL     1       1.363   3.735  18.356  1.00  0.00    -0.550 OA
ATOM     10  O   UNL     1       2.653   4.066  20.221  1.00  0.00    -0.550 OA
ENDBRANCH   7   8
ENDBRANCH   6   7
ENDBRANCH   5   6
ENDBRANCH   4   5
ENDBRANCH   3   4
ENDBRANCH   2   3
ENDBRANCH   1   2
BRANCH   1  11
ATOM     11  C   UNL     1       4.844  11.327  19.304  1.00  0.00     0.000 C 
BRANCH  11  12
ATOM     12  C   UNL     1       6.032  11.195  18.332  1.00  0.00    -0.000 C 
BRANCH  12  13
ATOM     13  C   UNL     1       5.738  11.615  16.877  1.00  0.00    -0.000 C 
BRANCH  13  14
ATOM     14  C   UNL     1       5.218  10.492  15.962  1.00  0.00    -0.000 C 
BRANCH  14  15
ATOM     15  C   UNL     1       4.156  10.979  14.961  1.00  0.00    -0.000 C 
BRANCH  15  16
ATOM     16  C   UNL     1       4.281  12.480  14.640  1.00  0.00    -0.000 C 
BRANCH  16  17
ATOM     17  C   UNL     1       2.999  13.303  14.858  1.00  0.00    -0.003 C 
ATOM     18  C   UNL     1       2.835  13.787  16.298  1.00  0.00     0.004 C 
ENDBRANCH  16  17
ENDBRANCH  15  16
ENDBRANCH  14  15
ENDBRANCH  13  14
ENDBRANCH  12  13
ENDBRANCH  11  12
ENDBRANCH   1  11
TORSDOF 14
ENDMDL
MODEL 7
REMARK VINA RESULT:    -4.325      3.140      6.840
REMARK INTER + INTRA:          -9.218
REMARK INTER:                  -7.958
REMARK INTRA:                  -1.260
REMARK UNBOUND:                -1.353
REMARK SMILES CCCCCCCCCCCCCCCC(=O)[O-]
REMARK SMILES IDX 9 1 10 2 11 3 12 4 13 5 14 6 15 7 16 8 17 9 18 10 8 11 7 12
REMARK SMILES IDX 6 13 5 14 4 15 3 16 2 17 1 18
REMARK H PARENT
REMARK Flexibility Score: inf
ROOT
ATOM      1  C   UNL     1       3.513   9.628  15.501  1.00  0.00     0.000 C 
ENDROOT
BRANCH   1   2
ATOM      2  C   UNL     1       2.574   9.800  16.712  1.00  0.00     0.000 C 
BRANCH   2   3
ATOM      3  C   UNL     1       2.150   8.487  17.401  1.00  0.00     0.000 C 
BRANCH   3   4
ATOM      4  C   UNL     1       2.502   7.204  16.629  1.00  0.00     0.000 C 
BRANCH   4   5
ATOM      5  C   UNL     1       2.529   5.957  17.526  1.00  0.00     0.000 C 
BRANCH   5   6
ATOM      6  C   UNL     1       1.554   6.107  18.703  1.00  0.00     0.006 C 
BRANCH   6   7
ATOM      7  C   UNL     1       0.899   4.774  19.088  1.00  0.00     0.053 C 
BRANCH   7   8
ATOM      8  C   UNL     1       1.919   3.708  19.346  1.00  0.00     0.041 C 
ATOM      9  O   UNL     1       2.685   3.791  20.341  1.00  0.00    -0.550 OA
ATOM     10  O   UNL     1       1.999   2.603  18.506  1.00  0.00    -0.550 OA
ENDBRANCH   7   8
ENDBRANCH   6   7
ENDBRANCH   5   6
ENDBRANCH   4   5
ENDBRANCH   3   4
ENDBRANCH   2   3
ENDBRANCH   1   2
BRANCH   1  11
ATOM     11  C   UNL     1       4.634  10.679  15.395  1.00  0.00     0.000 C 
BRANCH  11  12
ATOM     12  C   UNL     1       5.853  10.422  16.303  1.00  0.00    -0.000 C 
BRANCH  12  13
ATOM     13  C   UNL     1       6.175  11.552  17.302  1.00  0.00    -0.000 C 
BRANCH  13  14
ATOM     14  C   UNL     1       6.155  11.144  18.785  1.00  0.00    -0.000 C 
BRANCH  14  15
ATOM     15  C   UNL     1       5.008  11.802  19.571  1.00  0.00    -0.000 C 
BRANCH  15  16
ATOM     16  C   UNL     1       3.663  11.748  18.824  1.00  0.00    -0.000 C 
BRANCH  16  17
ATOM     17  C   UNL     1       3.018  13.117  18.540  1.00  0.00    -0.003 C 
ATOM     18  C   UNL     1       3.052  13.500  17.061  1.00  0.00     0.004 C 
ENDBRANCH  16  17
ENDBRANCH  15  16
ENDBRANCH  14  15
ENDBRANCH  13  14
ENDBRANCH  12  13
ENDBRANCH  11  12
ENDBRANCH   1  11
TORSDOF 14
ENDMDL
MODEL 8
REMARK VINA RESULT:    -4.033      5.530      6.421
REMARK INTER + INTRA:          -8.686
REMARK INTER:                  -8.099
REMARK INTRA:                  -0.587
REMARK UNBOUND:                -1.353
REMARK SMILES CCCCCCCCCCCCCCCC(=O)[O-]
REMARK SMILES IDX 9 1 10 2 11 3 12 4 13 5 14 6 15 7 16 8 17 9 18 10 8 11 7 12
REMARK SMILES IDX 6 13 5 14 4 15 3 16 2 17 1 18
REMARK H PARENT
REMARK Flexibility Score: inf
ROOT
ATOM      1  C   UNL     1       3.988  13.004  15.384  1.00  0.00     0.000 C 
ENDROOT
BRANCH   1   2
ATOM      2  C   UNL     1       3.294  13.291  16.731  1.00  0.00     0.000 C 
BRANCH   2   3
ATOM      3  C   UNL     1       2.247  14.422  16.699  1.00  0.00     0.000 C 
BRANCH   3   4
ATOM      4  C   UNL     1       1.826  14.958  18.079  1.00  0.00     0.000 C 
BRANCH   4   5
ATOM      5  C   UNL     1       0.568  15.836  18.019  1.00  0.00     0.000 C 
BRANCH   5   6
ATOM      6  C   UNL     1       0.842  17.227  18.610  1.00  0.00     0.006 C 
BRANCH   6   7
ATOM      7  C   UNL     1      -0.401  18.127  18.576  1.00  0.00     0.053 C 
BRANCH   7   8
ATOM      8  C   UNL     1      -1.103  18.157  19.898  1.00  0.00     0.041 C 
ATOM      9  O   UNL     1      -1.169  19.228  20.557  1.00  0.00    -0.550 OA
ATOM     10  O   UNL     1      -1.715  17.009  20.388  1.00  0.00    -0.550 OA
ENDBRANCH   7   8
ENDBRANCH   6   7
ENDBRANCH   5   6
ENDBRANCH   4   5
ENDBRANCH   3   4
ENDBRANCH   2   3
ENDBRANCH   1   2
BRANCH   1  11
ATOM     11  C   UNL     1       3.792  11.574  14.845  1.00  0.00     0.000 C 
BRANCH  11  12
ATOM     12  C   UNL     1       4.258  10.453  15.795  1.00  0.00    -0.000 C 
BRANCH  12  13
ATOM     13  C   UNL     1       3.220   9.341  16.054  1.00  0.00    -0.000 C 
BRANCH  13  14
ATOM     14  C   UNL     1       2.632   9.309  17.476  1.00  0.00    -0.000 C 
BRANCH  14  15
ATOM     15  C   UNL     1       1.791   8.051  17.747  1.00  0.00    -0.000 C 
BRANCH  15  16
ATOM     16  C   UNL     1       2.418   6.773  17.160  1.00  0.00    -0.000 C 
BRANCH  16  17
ATOM     17  C   UNL     1       2.131   5.483  17.949  1.00  0.00    -0.003 C 
ATOM     18  C   UNL     1       1.256   5.715  19.180  1.00  0.00     0.004 C 
ENDBRANCH  16  17
ENDBRANCH  15  16
ENDBRANCH  14  15
ENDBRANCH  13  14
ENDBRANCH  12  13
ENDBRANCH  11  12
ENDBRANCH   1  11
TORSDOF 14
ENDMDL
MODEL 9
REMARK VINA RESULT:    -3.951      2.345      5.729
REMARK INTER + INTRA:          -8.538
REMARK INTER:                  -7.270
REMARK INTRA:                  -1.268
REMARK UNBOUND:                -1.353
REMARK SMILES CCCCCCCCCCCCCCCC(=O)[O-]
REMARK SMILES IDX 9 1 10 2 11 3 12 4 13 5 14 6 15 7 16 8 17 9 18 10 8 11 7 12
REMARK SMILES IDX 6 13 5 14 4 15 3 16 2 17 1 18
REMARK H PARENT
REMARK Flexibility Score: inf
ROOT
ATOM      1  C   UNL     1       5.744  11.646  17.551  1.00  0.00     0.000 C 
ENDROOT
BRANCH   1   2
ATOM      2  C   UNL     1       5.125  11.084  18.846  1.00  0.00     0.000 C 
BRANCH   2   3
ATOM      3  C   UNL     1       3.603  10.845  18.793  1.00  0.00     0.000 C 
BRANCH   3   4
ATOM      4  C   UNL     1       3.134   9.885  17.685  1.00  0.00     0.000 C 
BRANCH   4   5
ATOM      5  C   UNL     1       2.151   8.820  18.196  1.00  0.00     0.000 C 
BRANCH   5   6
ATOM      6  C   UNL     1       2.065   7.640  17.216  1.00  0.00     0.006 C 
BRANCH   6   7
ATOM      7  C   UNL     1       1.112   6.544  17.710  1.00  0.00     0.053 C 
BRANCH   7   8
ATOM      8  C   UNL     1       1.845   5.446  18.418  1.00  0.00     0.041 C 
ATOM      9  O   UNL     1       1.329   4.882  19.419  1.00  0.00    -0.550 OA
ATOM     10  O   UNL     1       3.083   5.022  17.951  1.00  0.00    -0.550 OA
ENDBRANCH   7   8
ENDBRANCH   6   7
ENDBRANCH   5   6
ENDBRANCH   4   5
ENDBRANCH   3   4
ENDBRANCH   2   3
ENDBRANCH   1   2
BRANCH   1  11
ATOM     11  C   UNL     1       4.794  12.509  16.699  1.00  0.00     0.000 C 
BRANCH  11  12
ATOM     12  C   UNL     1       5.403  13.044  15.388  1.00  0.00    -0.000 C 
BRANCH  12  13
ATOM     13  C   UNL     1       4.531  12.844  14.131  1.00  0.00    -0.000 C 
BRANCH  13  14
ATOM     14  C   UNL     1       3.044  12.559  14.403  1.00  0.00    -0.000 C 
BRANCH  14  15
ATOM     15  C   UNL     1       2.617  11.145  13.974  1.00  0.00    -0.000 C 
BRANCH  15  16
ATOM     16  C   UNL     1       3.809  10.259  13.565  1.00  0.00    -0.000 C 
BRANCH  16  17
ATOM     17  C   UNL     1       3.817   8.850  14.183  1.00  0.00    -0.003 C 
ATOM     18  C   UNL     1       3.099   7.812  13.321  1.00  0.00     0.004 C 
ENDBRANCH  16  17
ENDBRANCH  15  16
ENDBRANCH  14  15
ENDBRANCH  13  14
ENDBRANCH  12  13
ENDBRANCH  11  12
ENDBRANCH   1  11
TORSDOF 14
ENDMDL
