MODEL 1
REMARK VINA RESULT:    -4.798      0.000      0.000
REMARK INTER + INTRA:         -13.948
REMARK INTER:                 -10.970
REMARK INTRA:                  -2.978
REMARK UNBOUND:                -2.978
REMARK SMILES CCCCCCCCCCCCCCCCCCCCCCCC(=O)[O-]
REMARK SMILES IDX 13 1 14 2 15 3 16 4 17 5 18 6 19 7 20 8 21 9 22 10 23 11
REMARK SMILES IDX 24 12 25 13 26 14 12 15 11 16 10 17 9 18 8 19 7 20 6 21 5 22
REMARK SMILES IDX 4 23 3 24 2 25 1 26
REMARK H PARENT
REMARK Flexibility Score: inf
ROOT
ATOM      1  C   UNL     1       0.727  -7.752   4.692  1.00  0.00     0.000 C 
ENDROOT
BRANCH   1   2
ATOM      2  C   UNL     1       1.147  -8.149   6.118  1.00  0.00     0.000 C 
BRANCH   2   3
ATOM      3  C   UNL     1      -0.027  -8.666   6.970  1.00  0.00     0.000 C 
BRANCH   3   4
ATOM      4  C   UNL     1      -0.283  -7.887   8.273  1.00  0.00     0.000 C 
BRANCH   4   5
ATOM      5  C   UNL     1      -0.699  -6.426   8.026  1.00  0.00     0.000 C 
BRANCH   5   6
ATOM      6  C   UNL     1      -2.035  -6.303   7.271  1.00  0.00     0.000 C 
BRANCH   6   7
ATOM      7  C   UNL     1      -2.531  -4.861   7.056  1.00  0.00     0.000 C 
BRANCH   7   8
ATOM      8  C   UNL     1      -1.954  -4.211   5.786  1.00  0.00     0.000 C 
BRANCH   8   9
ATOM      9  C   UNL     1      -3.038  -3.562   4.912  1.00  0.00     0.000 C 
BRANCH   9  10
ATOM     10  C   UNL     1      -4.320  -4.405   4.829  1.00  0.00     0.006 C 
BRANCH  10  11
ATOM     11  C   UNL     1      -5.564  -3.511   4.823  1.00  0.00     0.053 C 
BRANCH  11  12
ATOM     12  C   UNL     1      -5.914  -3.090   6.215  1.00  0.00     0.041 C 
ATOM     13  O   UNL     1      -6.138  -1.879   6.475  1.00  0.00    -0.550 OA
ATOM     14  O   UNL     1      -6.037  -4.044   7.219  1.00  0.00    -0.550 OA
ENDBRANCH  11  12
ENDBRANCH  10  11
ENDBRANCH   9  10
ENDBRANCH   8   9
ENDBRANCH   7   8
ENDBRANCH   6   7
ENDBRANCH   5   6
ENDBRANCH   4   5
ENDBRANCH   3   4
ENDBRANCH   2   3
ENDBRANCH   1   2
BRANCH   1  15
ATOM     15  C   UNL     1      -0.764  -8.015   4.409  1.00  0.00     0.000 C 
BRANCH  15  16
ATOM     16  C   UNL     1      -1.444  -7.017   3.452  1.00  0.00     0.000 C 
BRANCH  16  17
ATOM     17  C   UNL     1      -0.444  -6.081   2.751  1.00  0.00     0.000 C 
BRANCH  17  18
ATOM     18  C   UNL     1      -1.055  -5.347   1.543  1.00  0.00    -0.000 C 
BRANCH  18  19
ATOM     19  C   UNL     1      -2.584  -5.145   1.593  1.00  0.00    -0.000 C 
BRANCH  19  20
ATOM     20  C   UNL     1      -3.290  -5.134   0.225  1.00  0.00    -0.000 C 
BRANCH  20  21
ATOM     21  C   UNL     1      -2.348  -5.194  -0.992  1.00  0.00    -0.000 C 
BRANCH  21  22
ATOM     22  C   UNL     1      -2.804  -6.184  -2.085  1.00  0.00    -0.000 C 
BRANCH  22  23
ATOM     23  C   UNL     1      -4.309  -6.482  -2.022  1.00  0.00    -0.000 C 
BRANCH  23  24
ATOM     24  C   UNL     1      -5.029  -5.938  -3.262  1.00  0.00    -0.000 C 
BRANCH  24  25
ATOM     25  C   UNL     1      -5.747  -4.620  -2.948  1.00  0.00    -0.003 C 
ATOM     26  C   UNL     1      -7.048  -4.867  -2.190  1.00  0.00     0.004 C 
ENDBRANCH  24  25
ENDBRANCH  23  24
ENDBRANCH  22  23
ENDBRANCH  21  22
ENDBRANCH  20  21
ENDBRANCH  19  20
ENDBRANCH  18  19
ENDBRANCH  17  18
ENDBRANCH  16  17
ENDBRANCH  15  16
ENDBRANCH   1  15
TORSDOF 22
ENDMDL
MODEL 2
REMARK VINA RESULT:    -4.471      1.235      3.030
REMARK INTER + INTRA:         -13.199
REMARK INTER:                 -10.725
REMARK INTRA:                  -2.473
REMARK UNBOUND:                -2.978
REMARK SMILES CCCCCCCCCCCCCCCCCCCCCCCC(=O)[O-]
REMARK SMILES IDX 13 1 14 2 15 3 16 4 17 5 18 6 19 7 20 8 21 9 22 10 23 11
REMARK SMILES IDX 24 12 25 13 26 14 12 15 11 16 10 17 9 18 8 19 7 20 6 21 5 22
REMARK SMILES IDX 4 23 3 24 2 25 1 26
REMARK H PARENT
REMARK Flexibility Score: inf
ROOT
ATOM      1  C   UNL     1      -2.977  -5.885   2.759  1.00  0.00     0.000 C 
ENDROOT
BRANCH   1   2
ATOM      2  C   UNL     1      -1.557  -6.287   3.192  1.00  0.00     0.000 C 
BRANCH   2   3
ATOM      3  C   UNL     1      -1.516  -7.621   3.961  1.00  0.00     0.000 C 
BRANCH   3   4
ATOM      4  C   UNL     1      -0.159  -7.966   4.601  1.00  0.00     0.000 C 
BRANCH   4   5
ATOM      5  C   UNL     1      -0.271  -8.299   6.099  1.00  0.00     0.000 C 
BRANCH   5   6
ATOM      6  C   UNL     1      -1.190  -7.328   6.862  1.00  0.00     0.000 C 
BRANCH   6   7
ATOM      7  C   UNL     1      -0.577  -5.946   7.155  1.00  0.00     0.000 C 
BRANCH   7   8
ATOM      8  C   UNL     1      -1.530  -4.784   6.824  1.00  0.00     0.000 C 
BRANCH   8   9
ATOM      9  C   UNL     1      -2.960  -5.260   6.527  1.00  0.00     0.000 C 
BRANCH   9  10
ATOM     10  C   UNL     1      -4.015  -4.558   7.396  1.00  0.00     0.006 C 
BRANCH  10  11
ATOM     11  C   UNL     1      -4.175  -3.092   6.984  1.00  0.00     0.053 C 
BRANCH  11  12
ATOM     12  C   UNL     1      -5.565  -2.833   6.495  1.00  0.00     0.041 C 
ATOM     13  O   UNL     1      -6.293  -3.788   6.119  1.00  0.00    -0.550 OA
ATOM     14  O   UNL     1      -6.072  -1.539   6.496  1.00  0.00    -0.550 OA
ENDBRANCH  11  12
ENDBRANCH  10  11
ENDBRANCH   9  10
ENDBRANCH   8   9
ENDBRANCH   7   8
ENDBRANCH   6   7
ENDBRANCH   5   6
ENDBRANCH   4   5
ENDBRANCH   3   4
ENDBRANCH   2   3
ENDBRANCH   1   2
BRANCH   1  15
ATOM     15  C   UNL     1      -2.990  -4.882   1.591  1.00  0.00     0.000 C 
BRANCH  15  16
ATOM     16  C   UNL     1      -1.605  -4.407   1.110  1.00  0.00     0.000 C 
BRANCH  16  17
ATOM     17  C   UNL     1      -1.627  -3.851  -0.325  1.00  0.00     0.000 C 
BRANCH  17  18
ATOM     18  C   UNL     1      -1.154  -4.876  -1.373  1.00  0.00    -0.000 C 
BRANCH  18  19
ATOM     19  C   UNL     1      -2.145  -5.153  -2.523  1.00  0.00    -0.000 C 
BRANCH  19  20
ATOM     20  C   UNL     1      -3.017  -6.410  -2.350  1.00  0.00    -0.000 C 
BRANCH  20  21
ATOM     21  C   UNL     1      -4.378  -6.168  -1.670  1.00  0.00    -0.000 C 
BRANCH  21  22
ATOM     22  C   UNL     1      -5.589  -6.547  -2.548  1.00  0.00    -0.000 C 
BRANCH  22  23
ATOM     23  C   UNL     1      -6.640  -5.430  -2.621  1.00  0.00    -0.000 C 
BRANCH  23  24
ATOM     24  C   UNL     1      -6.870  -4.985  -4.070  1.00  0.00    -0.000 C 
BRANCH  24  25
ATOM     25  C   UNL     1      -5.543  -4.890  -4.833  1.00  0.00    -0.003 C 
ATOM     26  C   UNL     1      -4.924  -3.503  -4.692  1.00  0.00     0.004 C 
ENDBRANCH  24  25
ENDBRANCH  23  24
ENDBRANCH  22  23
ENDBRANCH  21  22
ENDBRANCH  20  21
ENDBRANCH  19  20
ENDBRANCH  18  19
ENDBRANCH  17  18
ENDBRANCH  16  17
ENDBRANCH  15  16
ENDBRANCH   1  15
TORSDOF 22
ENDMDL
MODEL 3
REMARK VINA RESULT:    -4.396      3.787      8.553
REMARK INTER + INTRA:         -13.029
REMARK INTER:                  -9.421
REMARK INTRA:                  -3.608
REMARK UNBOUND:                -2.978
REMARK SMILES CCCCCCCCCCCCCCCCCCCCCCCC(=O)[O-]
REMARK SMILES IDX 13 1 14 2 15 3 16 4 17 5 18 6 19 7 20 8 21 9 22 10 23 11
REMARK SMILES IDX 24 12 25 13 26 14 12 15 11 16 10 17 9 18 8 19 7 20 6 21 5 22
REMARK SMILES IDX 4 23 3 24 2 25 1 26
REMARK H PARENT
REMARK Flexibility Score: inf
ROOT
ATOM      1  C   UNL     1      -2.599  -4.762   1.520  1.00  0.00     0.000 C 
ENDROOT
BRANCH   1   2
ATOM      2  C   UNL     1      -1.311  -5.253   0.838  1.00  0.00     0.000 C 
BRANCH   2   3
ATOM      3  C   UNL     1      -0.432  -4.103   0.312  1.00  0.00     0.000 C 
BRANCH   3   4
ATOM      4  C   UNL     1      -0.765  -3.624  -1.113  1.00  0.00     0.000 C 
BRANCH   4   5
ATOM      5  C   UNL     1      -0.940  -4.783  -2.109  1.00  0.00     0.000 C 
BRANCH   5   6
ATOM      6  C   UNL     1      -2.369  -4.877  -2.675  1.00  0.00     0.000 C 
BRANCH   6   7
ATOM      7  C   UNL     1      -3.063  -6.235  -2.468  1.00  0.00     0.000 C 
BRANCH   7   8
ATOM      8  C   UNL     1      -4.216  -6.171  -1.450  1.00  0.00     0.000 C 
BRANCH   8   9
ATOM      9  C   UNL     1      -5.356  -5.249  -1.907  1.00  0.00     0.000 C 
BRANCH   9  10
ATOM     10  C   UNL     1      -5.858  -5.578  -3.321  1.00  0.00     0.006 C 
BRANCH  10  11
ATOM     11  C   UNL     1      -6.414  -4.328  -4.010  1.00  0.00     0.053 C 
BRANCH  11  12
ATOM     12  C   UNL     1      -7.220  -4.705  -5.213  1.00  0.00     0.041 C 
ATOM     13  O   UNL     1      -7.237  -3.957  -6.225  1.00  0.00    -0.550 OA
ATOM     14  O   UNL     1      -7.918  -5.906  -5.232  1.00  0.00    -0.550 OA
ENDBRANCH  11  12
ENDBRANCH  10  11
ENDBRANCH   9  10
ENDBRANCH   8   9
ENDBRANCH   7   8
ENDBRANCH   6   7
ENDBRANCH   5   6
ENDBRANCH   4   5
ENDBRANCH   3   4
ENDBRANCH   2   3
ENDBRANCH   1   2
BRANCH   1  15
ATOM     15  C   UNL     1      -3.044  -5.662   2.687  1.00  0.00     0.000 C 
BRANCH  15  16
ATOM     16  C   UNL     1      -3.659  -4.928   3.894  1.00  0.00     0.000 C 
BRANCH  16  17
ATOM     17  C   UNL     1      -2.702  -4.841   5.096  1.00  0.00     0.000 C 
BRANCH  17  18
ATOM     18  C   UNL     1      -1.661  -3.715   4.954  1.00  0.00    -0.000 C 
BRANCH  18  19
ATOM     19  C   UNL     1      -0.207  -4.112   5.282  1.00  0.00    -0.000 C 
BRANCH  19  20
ATOM     20  C   UNL     1       0.600  -4.683   4.101  1.00  0.00    -0.000 C 
BRANCH  20  21
ATOM     21  C   UNL     1       1.036  -6.152   4.264  1.00  0.00    -0.000 C 
BRANCH  21  22
ATOM     22  C   UNL     1       0.104  -7.160   3.558  1.00  0.00    -0.000 C 
BRANCH  22  23
ATOM     23  C   UNL     1      -0.801  -7.917   4.541  1.00  0.00    -0.000 C 
BRANCH  23  24
ATOM     24  C   UNL     1      -0.177  -7.961   5.941  1.00  0.00    -0.000 C 
BRANCH  24  25
ATOM     25  C   UNL     1      -1.191  -7.532   7.009  1.00  0.00    -0.003 C 
ATOM     26  C   UNL     1      -0.563  -6.567   8.010  1.00  0.00     0.004 C 
ENDBRANCH  24  25
ENDBRANCH  23  24
ENDBRANCH  22  23
ENDBRANCH  21  22
ENDBRANCH  20  21
ENDBRANCH  19  20
ENDBRANCH  18  19
ENDBRANCH  17  18
ENDBRANCH  16  17
ENDBRANCH  15  16
ENDBRANCH   1  15
TORSDOF 22
ENDMDL
MODEL 4
REMARK VINA RESULT:    -4.369      1.281      2.218
REMARK INTER + INTRA:         -12.967
REMARK INTER:                 -11.078
REMARK INTRA:                  -1.888
REMARK UNBOUND:                -2.978
REMARK SMILES CCCCCCCCCCCCCCCCCCCCCCCC(=O)[O-]
REMARK SMILES IDX 13 1 14 2 15 3 16 4 17 5 18 6 19 7 20 8 21 9 22 10 23 11
REMARK SMILES IDX 24 12 25 13 26 14 12 15 11 16 10 17 9 18 8 19 7 20 6 21 5 22
REMARK SMILES IDX 4 23 3 24 2 25 1 26
REMARK H PARENT
REMARK Flexibility Score: inf
ROOT
ATOM      1  C   UNL     1      -1.405  -6.416   3.801  1.00  0.00     0.000 C 
ENDROOT
BRANCH   1   2
ATOM      2  C   UNL     1      -1.147  -7.892   4.149  1.00  0.00     0.000 C 
BRANCH   2   3
ATOM      3  C   UNL     1       0.140  -8.101   4.969  1.00  0.00     0.000 C 
BRANCH   3   4
ATOM      4  C   UNL     1      -0.065  -8.726   6.361  1.00  0.00     0.000 C 
BRANCH   4   5
ATOM      5  C   UNL     1      -0.081  -7.681   7.490  1.00  0.00     0.000 C 
BRANCH   5   6
ATOM      6  C   UNL     1      -1.347  -6.805   7.478  1.00  0.00     0.000 C 
BRANCH   6   7
ATOM      7  C   UNL     1      -1.961  -6.529   8.862  1.00  0.00     0.000 C 
BRANCH   7   8
ATOM      8  C   UNL     1      -3.209  -5.629   8.797  1.00  0.00     0.000 C 
BRANCH   8   9
ATOM      9  C   UNL     1      -3.449  -5.055   7.392  1.00  0.00     0.000 C 
BRANCH   9  10
ATOM     10  C   UNL     1      -4.729  -4.210   7.306  1.00  0.00     0.006 C 
BRANCH  10  11
ATOM     11  C   UNL     1      -4.430  -2.821   6.732  1.00  0.00     0.053 C 
BRANCH  11  12
ATOM     12  C   UNL     1      -5.701  -2.103   6.406  1.00  0.00     0.041 C 
ATOM     13  O   UNL     1      -5.744  -0.845   6.430  1.00  0.00    -0.550 OA
ATOM     14  O   UNL     1      -6.829  -2.823   6.031  1.00  0.00    -0.550 OA
ENDBRANCH  11  12
ENDBRANCH  10  11
ENDBRANCH   9  10
ENDBRANCH   8   9
ENDBRANCH   7   8
ENDBRANCH   6   7
ENDBRANCH   5   6
ENDBRANCH   4   5
ENDBRANCH   3   4
ENDBRANCH   2   3
ENDBRANCH   1   2
BRANCH   1  15
ATOM     15  C   UNL     1      -2.788  -6.180   3.167  1.00  0.00     0.000 C 
BRANCH  15  16
ATOM     16  C   UNL     1      -3.315  -4.734   3.242  1.00  0.00     0.000 C 
BRANCH  16  17
ATOM     17  C   UNL     1      -3.087  -3.944   1.942  1.00  0.00     0.000 C 
BRANCH  17  18
ATOM     18  C   UNL     1      -2.641  -4.836   0.768  1.00  0.00    -0.000 C 
BRANCH  18  19
ATOM     19  C   UNL     1      -1.739  -4.151  -0.280  1.00  0.00    -0.000 C 
BRANCH  19  20
ATOM     20  C   UNL     1      -1.451  -4.983  -1.543  1.00  0.00    -0.000 C 
BRANCH  20  21
ATOM     21  C   UNL     1      -2.645  -5.136  -2.505  1.00  0.00    -0.000 C 
BRANCH  21  22
ATOM     22  C   UNL     1      -3.315  -6.525  -2.451  1.00  0.00    -0.000 C 
BRANCH  22  23
ATOM     23  C   UNL     1      -4.828  -6.443  -2.200  1.00  0.00    -0.000 C 
BRANCH  23  24
ATOM     24  C   UNL     1      -5.236  -5.031  -1.761  1.00  0.00    -0.000 C 
BRANCH  24  25
ATOM     25  C   UNL     1      -6.686  -4.728  -2.160  1.00  0.00    -0.003 C 
ATOM     26  C   UNL     1      -7.143  -5.631  -3.301  1.00  0.00     0.004 C 
ENDBRANCH  24  25
ENDBRANCH  23  24
ENDBRANCH  22  23
ENDBRANCH  21  22
ENDBRANCH  20  21
ENDBRANCH  19  20
ENDBRANCH  18  19
ENDBRANCH  17  18
ENDBRANCH  16  17
ENDBRANCH  15  16
ENDBRANCH   1  15
TORSDOF 22
ENDMDL
MODEL 5
REMARK VINA RESULT:    -4.368     12.057     13.977
REMARK INTER + INTRA:         -12.964
REMARK INTER:                 -10.710
REMARK INTRA:                  -2.255
REMARK UNBOUND:                -2.978
REMARK SMILES CCCCCCCCCCCCCCCCCCCCCCCC(=O)[O-]
REMARK SMILES IDX 13 1 14 2 15 3 16 4 17 5 18 6 19 7 20 8 21 9 22 10 23 11
REMARK SMILES IDX 24 12 25 13 26 14 12 15 11 16 10 17 9 18 8 19 7 20 6 21 5 22
REMARK SMILES IDX 4 23 3 24 2 25 1 26
REMARK H PARENT
REMARK Flexibility Score: inf
ROOT
ATOM      1  C   UNL     1       1.329   6.711   3.431  1.00  0.00     0.000 C 
ENDROOT
BRANCH   1   2
ATOM      2  C   UNL     1       1.248   8.064   4.158  1.00  0.00     0.000 C 
BRANCH   2   3
ATOM      3  C   UNL     1      -0.121   8.312   4.819  1.00  0.00     0.000 C 
BRANCH   3   4
ATOM      4  C   UNL     1      -0.078   9.126   6.126  1.00  0.00     0.000 C 
BRANCH   4   5
ATOM      5  C   UNL     1      -0.281   8.258   7.379  1.00  0.00     0.000 C 
BRANCH   5   6
ATOM      6  C   UNL     1       1.030   7.641   7.900  1.00  0.00     0.000 C 
BRANCH   6   7
ATOM      7  C   UNL     1       1.310   6.205   7.420  1.00  0.00     0.000 C 
BRANCH   7   8
ATOM      8  C   UNL     1       2.790   5.966   7.073  1.00  0.00     0.000 C 
BRANCH   8   9
ATOM      9  C   UNL     1       3.463   4.961   8.020  1.00  0.00     0.000 C 
BRANCH   9  10
ATOM     10  C   UNL     1       4.386   3.976   7.285  1.00  0.00     0.006 C 
BRANCH  10  11
ATOM     11  C   UNL     1       4.224   4.104   5.767  1.00  0.00     0.053 C 
BRANCH  11  12
ATOM     12  C   UNL     1       5.389   3.484   5.061  1.00  0.00     0.041 C 
ATOM     13  O   UNL     1       6.533   3.999   5.153  1.00  0.00    -0.550 OA
ATOM     14  O   UNL     1       5.217   2.311   4.337  1.00  0.00    -0.550 OA
ENDBRANCH  11  12
ENDBRANCH  10  11
ENDBRANCH   9  10
ENDBRANCH   8   9
ENDBRANCH   7   8
ENDBRANCH   6   7
ENDBRANCH   5   6
ENDBRANCH   4   5
ENDBRANCH   3   4
ENDBRANCH   2   3
ENDBRANCH   1   2
BRANCH   1  15
ATOM     15  C   UNL     1       2.775   6.267   3.144  1.00  0.00     0.000 C 
BRANCH  15  16
ATOM     16  C   UNL     1       2.942   5.254   1.996  1.00  0.00     0.000 C 
BRANCH  16  17
ATOM     17  C   UNL     1       1.603   4.688   1.494  1.00  0.00     0.000 C 
BRANCH  17  18
ATOM     18  C   UNL     1       1.244   5.164   0.074  1.00  0.00    -0.000 C 
BRANCH  18  19
ATOM     19  C   UNL     1       2.289   4.845  -1.016  1.00  0.00    -0.000 C 
BRANCH  19  20
ATOM     20  C   UNL     1       2.162   5.671  -2.309  1.00  0.00    -0.000 C 
BRANCH  20  21
ATOM     21  C   UNL     1       3.189   6.810  -2.455  1.00  0.00    -0.000 C 
BRANCH  21  22
ATOM     22  C   UNL     1       4.488   6.585  -1.652  1.00  0.00    -0.000 C 
BRANCH  22  23
ATOM     23  C   UNL     1       5.708   6.349  -2.553  1.00  0.00    -0.000 C 
BRANCH  23  24
ATOM     24  C   UNL     1       5.682   4.940  -3.158  1.00  0.00    -0.000 C 
BRANCH  24  25
ATOM     25  C   UNL     1       6.734   4.039  -2.500  1.00  0.00    -0.003 C 
ATOM     26  C   UNL     1       7.873   4.864  -1.908  1.00  0.00     0.004 C 
ENDBRANCH  24  25
ENDBRANCH  23  24
ENDBRANCH  22  23
ENDBRANCH  21  22
ENDBRANCH  20  21
ENDBRANCH  19  20
ENDBRANCH  18  19
ENDBRANCH  17  18
ENDBRANCH  16  17
ENDBRANCH  15  16
ENDBRANCH   1  15
TORSDOF 22
ENDMDL
MODEL 6
REMARK VINA RESULT:    -4.333     11.474     13.393
REMARK INTER + INTRA:         -12.884
REMARK INTER:                  -9.584
REMARK INTRA:                  -3.300
REMARK UNBOUND:                -2.978
REMARK SMILES CCCCCCCCCCCCCCCCCCCCCCCC(=O)[O-]
REMARK SMILES IDX 13 1 14 2 15 3 16 4 17 5 18 6 19 7 20 8 21 9 22 10 23 11
REMARK SMILES IDX 24 12 25 13 26 14 12 15 11 16 10 17 9 18 8 19 7 20 6 21 5 22
REMARK SMILES IDX 4 23 3 24 2 25 1 26
REMARK H PARENT
REMARK Flexibility Score: inf
ROOT
ATOM      1  C   UNL     1      -2.501   6.010   6.432  1.00  0.00     0.000 C 
ENDROOT
BRANCH   1   2
ATOM      2  C   UNL     1      -1.285   5.208   5.937  1.00  0.00     0.000 C 
BRANCH   2   3
ATOM      3  C   UNL     1      -0.188   5.054   7.007  1.00  0.00     0.000 C 
BRANCH   3   4
ATOM      4  C   UNL     1      -0.237   6.087   8.148  1.00  0.00     0.000 C 
BRANCH   4   5
ATOM      5  C   UNL     1       0.982   7.025   8.161  1.00  0.00     0.000 C 
BRANCH   5   6
ATOM      6  C   UNL     1       2.251   6.366   7.589  1.00  0.00     0.000 C 
BRANCH   6   7
ATOM      7  C   UNL     1       3.198   5.758   8.640  1.00  0.00     0.000 C 
BRANCH   7   8
ATOM      8  C   UNL     1       4.176   4.730   8.042  1.00  0.00     0.000 C 
BRANCH   8   9
ATOM      9  C   UNL     1       3.547   3.907   6.907  1.00  0.00     0.000 C 
BRANCH   9  10
ATOM     10  C   UNL     1       4.312   4.039   5.582  1.00  0.00     0.006 C 
BRANCH  10  11
ATOM     11  C   UNL     1       4.812   2.674   5.100  1.00  0.00     0.053 C 
BRANCH  11  12
ATOM     12  C   UNL     1       5.867   2.146   6.021  1.00  0.00     0.041 C 
ATOM     13  O   UNL     1       5.914   0.918   6.294  1.00  0.00    -0.550 OA
ATOM     14  O   UNL     1       6.826   3.005   6.544  1.00  0.00    -0.550 OA
ENDBRANCH  11  12
ENDBRANCH  10  11
ENDBRANCH   9  10
ENDBRANCH   8   9
ENDBRANCH   7   8
ENDBRANCH   6   7
ENDBRANCH   5   6
ENDBRANCH   4   5
ENDBRANCH   3   4
ENDBRANCH   2   3
ENDBRANCH   1   2
BRANCH   1  15
ATOM     15  C   UNL     1      -2.622   7.393   5.767  1.00  0.00     0.000 C 
BRANCH  15  16
ATOM     16  C   UNL     1      -1.582   7.696   4.672  1.00  0.00     0.000 C 
BRANCH  16  17
ATOM     17  C   UNL     1      -0.500   8.689   5.129  1.00  0.00     0.000 C 
BRANCH  17  18
ATOM     18  C   UNL     1       0.909   8.313   4.633  1.00  0.00    -0.000 C 
BRANCH  18  19
ATOM     19  C   UNL     1       0.960   7.202   3.563  1.00  0.00    -0.000 C 
BRANCH  19  20
ATOM     20  C   UNL     1       1.965   6.069   3.840  1.00  0.00    -0.000 C 
BRANCH  20  21
ATOM     21  C   UNL     1       2.863   5.692   2.645  1.00  0.00    -0.000 C 
BRANCH  21  22
ATOM     22  C   UNL     1       2.438   4.390   1.934  1.00  0.00    -0.000 C 
BRANCH  22  23
ATOM     23  C   UNL     1       3.190   4.164   0.614  1.00  0.00    -0.000 C 
BRANCH  23  24
ATOM     24  C   UNL     1       3.407   5.489  -0.128  1.00  0.00    -0.000 C 
BRANCH  24  25
ATOM     25  C   UNL     1       2.562   5.549  -1.406  1.00  0.00    -0.003 C 
ATOM     26  C   UNL     1       3.271   6.341  -2.500  1.00  0.00     0.004 C 
ENDBRANCH  24  25
ENDBRANCH  23  24
ENDBRANCH  22  23
ENDBRANCH  21  22
ENDBRANCH  20  21
ENDBRANCH  19  20
ENDBRANCH  18  19
ENDBRANCH  17  18
ENDBRANCH  16  17
ENDBRANCH  15  16
ENDBRANCH   1  15
TORSDOF 22
ENDMDL
MODEL 7
REMARK VINA RESULT:    -4.328      3.475      8.497
REMARK INTER + INTRA:         -12.873
REMARK INTER:                 -10.151
REMARK INTRA:                  -2.722
REMARK UNBOUND:                -2.978
REMARK SMILES CCCCCCCCCCCCCCCCCCCCCCCC(=O)[O-]
REMARK SMILES IDX 13 1 14 2 15 3 16 4 17 5 18 6 19 7 20 8 21 9 22 10 23 11
REMARK SMILES IDX 24 12 25 13 26 14 12 15 11 16 10 17 9 18 8 19 7 20 6 21 5 22
REMARK SMILES IDX 4 23 3 24 2 25 1 26
REMARK H PARENT
REMARK Flexibility Score: inf
ROOT
ATOM      1  C   UNL     1      -2.839  -5.814   2.521  1.00  0.00     0.000 C 
ENDROOT
BRANCH   1   2
ATOM      2  C   UNL     1      -2.885  -4.280   2.422  1.00  0.00     0.000 C 
BRANCH   2   3
ATOM      3  C   UNL     1      -3.330  -3.779   1.035  1.00  0.00     0.000 C 
BRANCH   3   4
ATOM      4  C   UNL     1      -2.209  -3.679  -0.016  1.00  0.00     0.000 C 
BRANCH   4   5
ATOM      5  C   UNL     1      -2.687  -4.023  -1.437  1.00  0.00     0.000 C 
BRANCH   5   6
ATOM      6  C   UNL     1      -2.031  -5.298  -1.998  1.00  0.00     0.000 C 
BRANCH   6   7
ATOM      7  C   UNL     1      -3.016  -6.365  -2.510  1.00  0.00     0.000 C 
BRANCH   7   8
ATOM      8  C   UNL     1      -4.277  -6.487  -1.636  1.00  0.00     0.000 C 
BRANCH   8   9
ATOM      9  C   UNL     1      -5.569  -6.221  -2.424  1.00  0.00     0.000 C 
BRANCH   9  10
ATOM     10  C   UNL     1      -5.309  -5.562  -3.787  1.00  0.00     0.006 C 
BRANCH  10  11
ATOM     11  C   UNL     1      -6.334  -4.457  -4.064  1.00  0.00     0.053 C 
BRANCH  11  12
ATOM     12  C   UNL     1      -7.677  -5.048  -4.357  1.00  0.00     0.041 C 
ATOM     13  O   UNL     1      -7.849  -5.747  -5.390  1.00  0.00    -0.550 OA
ATOM     14  O   UNL     1      -8.727  -4.862  -3.467  1.00  0.00    -0.550 OA
ENDBRANCH  11  12
ENDBRANCH  10  11
ENDBRANCH   9  10
ENDBRANCH   8   9
ENDBRANCH   7   8
ENDBRANCH   6   7
ENDBRANCH   5   6
ENDBRANCH   4   5
ENDBRANCH   3   4
ENDBRANCH   2   3
ENDBRANCH   1   2
BRANCH   1  15
ATOM     15  C   UNL     1      -1.483  -6.346   3.019  1.00  0.00     0.000 C 
BRANCH  15  16
ATOM     16  C   UNL     1      -1.554  -7.543   3.986  1.00  0.00     0.000 C 
BRANCH  16  17
ATOM     17  C   UNL     1      -0.170  -8.003   4.475  1.00  0.00     0.000 C 
BRANCH  17  18
ATOM     18  C   UNL     1       0.171  -7.484   5.885  1.00  0.00    -0.000 C 
BRANCH  18  19
ATOM     19  C   UNL     1      -0.799  -7.919   7.003  1.00  0.00    -0.000 C 
BRANCH  19  20
ATOM     20  C   UNL     1      -1.670  -6.793   7.591  1.00  0.00    -0.000 C 
BRANCH  20  21
ATOM     21  C   UNL     1      -1.057  -5.383   7.499  1.00  0.00    -0.000 C 
BRANCH  21  22
ATOM     22  C   UNL     1      -1.689  -4.499   6.402  1.00  0.00    -0.000 C 
BRANCH  22  23
ATOM     23  C   UNL     1      -3.153  -4.865   6.119  1.00  0.00    -0.000 C 
BRANCH  23  24
ATOM     24  C   UNL     1      -4.083  -3.682   6.419  1.00  0.00    -0.000 C 
BRANCH  24  25
ATOM     25  C   UNL     1      -5.253  -4.115   7.311  1.00  0.00    -0.003 C 
ATOM     26  C   UNL     1      -4.774  -4.993   8.462  1.00  0.00     0.004 C 
ENDBRANCH  24  25
ENDBRANCH  23  24
ENDBRANCH  22  23
ENDBRANCH  21  22
ENDBRANCH  20  21
ENDBRANCH  19  20
ENDBRANCH  18  19
ENDBRANCH  17  18
ENDBRANCH  16  17
ENDBRANCH  15  16
ENDBRANCH   1  15
TORSDOF 22
ENDMDL
MODEL 8
REMARK VINA RESULT:    -4.266      3.396      7.744
REMARK INTER + INTRA:         -12.730
REMARK INTER:                  -9.542
REMARK INTRA:                  -3.188
REMARK UNBOUND:                -2.978
REMARK SMILES CCCCCCCCCCCCCCCCCCCCCCCC(=O)[O-]
REMARK SMILES IDX 13 1 14 2 15 3 16 4 17 5 18 6 19 7 20 8 21 9 22 10 23 11
REMARK SMILES IDX 24 12 25 13 26 14 12 15 11 16 10 17 9 18 8 19 7 20 6 21 5 22
REMARK SMILES IDX 4 23 3 24 2 25 1 26
REMARK H PARENT
REMARK Flexibility Score: inf
ROOT
ATOM      1  C   UNL     1      -2.956  -3.650   2.369  1.00  0.00     0.000 C 
ENDROOT
BRANCH   1   2
ATOM      2  C   UNL     1      -1.758  -3.266   3.254  1.00  0.00     0.000 C 
BRANCH   2   3
ATOM      3  C   UNL     1      -0.429  -3.206   2.477  1.00  0.00     0.000 C 
BRANCH   3   4
ATOM      4  C   UNL     1      -0.536  -2.664   1.040  1.00  0.00     0.000 C 
BRANCH   4   5
ATOM      5  C   UNL     1       0.285  -3.482   0.028  1.00  0.00     0.000 C 
BRANCH   5   6
ATOM      6  C   UNL     1      -0.482  -4.700  -0.520  1.00  0.00     0.000 C 
BRANCH   6   7
ATOM      7  C   UNL     1      -1.740  -4.362  -1.340  1.00  0.00     0.000 C 
BRANCH   7   8
ATOM      8  C   UNL     1      -1.953  -5.314  -2.532  1.00  0.00     0.000 C 
BRANCH   8   9
ATOM      9  C   UNL     1      -3.019  -6.384  -2.249  1.00  0.00     0.000 C 
BRANCH   9  10
ATOM     10  C   UNL     1      -4.179  -5.856  -1.390  1.00  0.00     0.006 C 
BRANCH  10  11
ATOM     11  C   UNL     1      -5.156  -5.033  -2.236  1.00  0.00     0.053 C 
BRANCH  11  12
ATOM     12  C   UNL     1      -5.834  -5.902  -3.248  1.00  0.00     0.041 C 
ATOM     13  O   UNL     1      -6.407  -6.964  -2.889  1.00  0.00    -0.550 OA
ATOM     14  O   UNL     1      -5.872  -5.516  -4.582  1.00  0.00    -0.550 OA
ENDBRANCH  11  12
ENDBRANCH  10  11
ENDBRANCH   9  10
ENDBRANCH   8   9
ENDBRANCH   7   8
ENDBRANCH   6   7
ENDBRANCH   5   6
ENDBRANCH   4   5
ENDBRANCH   3   4
ENDBRANCH   2   3
ENDBRANCH   1   2
BRANCH   1  15
ATOM     15  C   UNL     1      -3.003  -5.153   2.039  1.00  0.00     0.000 C 
BRANCH  15  16
ATOM     16  C   UNL     1      -2.734  -6.101   3.223  1.00  0.00     0.000 C 
BRANCH  16  17
ATOM     17  C   UNL     1      -1.366  -6.799   3.134  1.00  0.00     0.000 C 
BRANCH  17  18
ATOM     18  C   UNL     1      -1.201  -7.930   4.166  1.00  0.00    -0.000 C 
BRANCH  18  19
ATOM     19  C   UNL     1      -0.430  -7.551   5.448  1.00  0.00    -0.000 C 
BRANCH  19  20
ATOM     20  C   UNL     1      -1.226  -6.718   6.470  1.00  0.00    -0.000 C 
BRANCH  20  21
ATOM     21  C   UNL     1      -0.787  -5.246   6.590  1.00  0.00    -0.000 C 
BRANCH  21  22
ATOM     22  C   UNL     1      -1.952  -4.268   6.850  1.00  0.00    -0.000 C 
BRANCH  22  23
ATOM     23  C   UNL     1      -3.327  -4.944   6.746  1.00  0.00    -0.000 C 
BRANCH  23  24
ATOM     24  C   UNL     1      -4.453  -3.903   6.743  1.00  0.00    -0.000 C 
BRANCH  24  25
ATOM     25  C   UNL     1      -4.962  -3.648   5.319  1.00  0.00    -0.003 C 
ATOM     26  C   UNL     1      -6.323  -2.959   5.335  1.00  0.00     0.004 C 
ENDBRANCH  24  25
ENDBRANCH  23  24
ENDBRANCH  22  23
ENDBRANCH  21  22
ENDBRANCH  20  21
ENDBRANCH  19  20
ENDBRANCH  18  19
ENDBRANCH  17  18
ENDBRANCH  16  17
ENDBRANCH  15  16
ENDBRANCH   1  15
TORSDOF 22
ENDMDL
MODEL 9
REMARK VINA RESULT:    -4.265     12.355     15.096
REMARK INTER + INTRA:         -12.728
REMARK INTER:                 -10.208
REMARK INTRA:                  -2.519
REMARK UNBOUND:                -2.978
REMARK SMILES CCCCCCCCCCCCCCCCCCCCCCCC(=O)[O-]
REMARK SMILES IDX 13 1 14 2 15 3 16 4 17 5 18 6 19 7 20 8 21 9 22 10 23 11
REMARK SMILES IDX 24 12 25 13 26 14 12 15 11 16 10 17 9 18 8 19 7 20 6 21 5 22
REMARK SMILES IDX 4 23 3 24 2 25 1 26
REMARK H PARENT
REMARK Flexibility Score: inf
ROOT
ATOM      1  C   UNL     1       4.088   2.858   4.640  1.00  0.00     0.000 C 
ENDROOT
BRANCH   1   2
ATOM      2  C   UNL     1       2.943   3.699   4.051  1.00  0.00     0.000 C 
BRANCH   2   3
ATOM      3  C   UNL     1       3.357   5.152   3.748  1.00  0.00     0.000 C 
BRANCH   3   4
ATOM      4  C   UNL     1       2.780   5.739   2.447  1.00  0.00     0.000 C 
BRANCH   4   5
ATOM      5  C   UNL     1       3.008   4.831   1.227  1.00  0.00     0.000 C 
BRANCH   5   6
ATOM      6  C   UNL     1       2.605   5.499  -0.101  1.00  0.00     0.000 C 
BRANCH   6   7
ATOM      7  C   UNL     1       3.525   5.184  -1.294  1.00  0.00     0.000 C 
BRANCH   7   8
ATOM      8  C   UNL     1       3.522   6.291  -2.364  1.00  0.00     0.000 C 
BRANCH   8   9
ATOM      9  C   UNL     1       4.786   6.273  -3.237  1.00  0.00     0.000 C 
BRANCH   9  10
ATOM     10  C   UNL     1       6.052   6.662  -2.459  1.00  0.00     0.006 C 
BRANCH  10  11
ATOM     11  C   UNL     1       7.108   5.556  -2.543  1.00  0.00     0.053 C 
BRANCH  11  12
ATOM     12  C   UNL     1       7.214   5.037  -3.942  1.00  0.00     0.041 C 
ATOM     13  O   UNL     1       7.839   5.692  -4.816  1.00  0.00    -0.550 OA
ATOM     14  O   UNL     1       6.660   3.805  -4.270  1.00  0.00    -0.550 OA
ENDBRANCH  11  12
ENDBRANCH  10  11
ENDBRANCH   9  10
ENDBRANCH   8   9
ENDBRANCH   7   8
ENDBRANCH   6   7
ENDBRANCH   5   6
ENDBRANCH   4   5
ENDBRANCH   3   4
ENDBRANCH   2   3
ENDBRANCH   1   2
BRANCH   1  15
ATOM     15  C   UNL     1       5.323   3.698   5.011  1.00  0.00     0.000 C 
BRANCH  15  16
ATOM     16  C   UNL     1       5.677   3.731   6.510  1.00  0.00     0.000 C 
BRANCH  16  17
ATOM     17  C   UNL     1       4.439   3.846   7.416  1.00  0.00     0.000 C 
BRANCH  17  18
ATOM     18  C   UNL     1       4.479   5.085   8.331  1.00  0.00    -0.000 C 
BRANCH  18  19
ATOM     19  C   UNL     1       3.230   5.990   8.276  1.00  0.00    -0.000 C 
BRANCH  19  20
ATOM     20  C   UNL     1       2.275   5.720   7.098  1.00  0.00    -0.000 C 
BRANCH  20  21
ATOM     21  C   UNL     1       0.908   6.423   7.197  1.00  0.00    -0.000 C 
BRANCH  21  22
ATOM     22  C   UNL     1       0.916   7.876   6.676  1.00  0.00    -0.000 C 
BRANCH  22  23
ATOM     23  C   UNL     1       0.921   7.955   5.142  1.00  0.00    -0.000 C 
BRANCH  23  24
ATOM     24  C   UNL     1      -0.491   7.752   4.577  1.00  0.00    -0.000 C 
BRANCH  24  25
ATOM     25  C   UNL     1      -0.487   6.712   3.449  1.00  0.00    -0.003 C 
ATOM     26  C   UNL     1      -0.721   5.307   3.995  1.00  0.00     0.004 C 
ENDBRANCH  24  25
ENDBRANCH  23  24
ENDBRANCH  22  23
ENDBRANCH  21  22
ENDBRANCH  20  21
ENDBRANCH  19  20
ENDBRANCH  18  19
ENDBRANCH  17  18
ENDBRANCH  16  17
ENDBRANCH  15  16
ENDBRANCH   1  15
TORSDOF 22
ENDMDL
