MODEL 1
REMARK VINA RESULT:    -5.206      0.000      0.000
REMARK INTER + INTRA:         -13.346
REMARK INTER:                 -11.294
REMARK INTRA:                  -2.052
REMARK UNBOUND:                -2.052
REMARK SMILES CCCCCCCCCCCCCCCCCCCCCC(=O)[O-]
REMARK SMILES IDX 12 1 11 2 10 3 9 4 8 5 7 6 6 7 5 8 4 9 3 10 2 11 1 12 13 13
REMARK SMILES IDX 14 14 15 15 16 16 17 17 18 18 19 19 20 20 21 21 22 22 23 23
REMARK SMILES IDX 24 24
REMARK H PARENT
REMARK Flexibility Score: inf
ROOT
ATOM      1  C   UNL     1      11.152 -24.551  26.677  1.00  0.00     0.000 C 
ENDROOT
BRANCH   1   2
ATOM      2  C   UNL     1       9.684 -24.674  26.223  1.00  0.00     0.000 C 
BRANCH   2   3
ATOM      3  C   UNL     1       9.490 -25.112  24.762  1.00  0.00     0.000 C 
BRANCH   3   4
ATOM      4  C   UNL     1       8.854 -24.054  23.839  1.00  0.00    -0.000 C 
BRANCH   4   5
ATOM      5  C   UNL     1       8.526 -24.569  22.422  1.00  0.00    -0.000 C 
BRANCH   5   6
ATOM      6  C   UNL     1       7.234 -23.953  21.855  1.00  0.00    -0.000 C 
BRANCH   6   7
ATOM      7  C   UNL     1       7.115 -24.125  20.332  1.00  0.00    -0.000 C 
BRANCH   7   8
ATOM      8  C   UNL     1       6.001 -23.257  19.721  1.00  0.00    -0.000 C 
BRANCH   8   9
ATOM      9  C   UNL     1       6.112 -23.156  18.184  1.00  0.00    -0.000 C 
BRANCH   9  10
ATOM     10  C   UNL     1       7.147 -24.118  17.569  1.00  0.00    -0.000 C 
BRANCH  10  11
ATOM     11  C   UNL     1       6.561 -25.176  16.619  1.00  0.00    -0.003 C 
ATOM     12  C   UNL     1       5.946 -26.367  17.358  1.00  0.00     0.004 C 
ENDBRANCH  10  11
ENDBRANCH   9  10
ENDBRANCH   8   9
ENDBRANCH   7   8
ENDBRANCH   6   7
ENDBRANCH   5   6
ENDBRANCH   4   5
ENDBRANCH   3   4
ENDBRANCH   2   3
ENDBRANCH   1   2
BRANCH   1  13
ATOM     13  C   UNL     1      11.617 -23.095  26.899  1.00  0.00     0.000 C 
BRANCH  13  14
ATOM     14  C   UNL     1      10.670 -22.076  26.245  1.00  0.00     0.000 C 
BRANCH  14  15
ATOM     15  C   UNL     1      11.219 -21.506  24.925  1.00  0.00     0.000 C 
BRANCH  15  16
ATOM     16  C   UNL     1      12.611 -22.028  24.515  1.00  0.00     0.000 C 
BRANCH  16  17
ATOM     17  C   UNL     1      12.804 -22.266  23.003  1.00  0.00     0.000 C 
BRANCH  17  18
ATOM     18  C   UNL     1      12.042 -23.479  22.430  1.00  0.00     0.000 C 
BRANCH  18  19
ATOM     19  C   UNL     1      12.319 -23.776  20.946  1.00  0.00     0.000 C 
BRANCH  19  20
ATOM     20  C   UNL     1      13.352 -22.820  20.333  1.00  0.00     0.006 C 
BRANCH  20  21
ATOM     21  C   UNL     1      14.635 -23.567  19.955  1.00  0.00     0.053 C 
BRANCH  21  22
ATOM     22  C   UNL     1      15.239 -24.215  21.162  1.00  0.00     0.041 C 
ATOM     23  O   UNL     1      15.816 -23.515  22.034  1.00  0.00    -0.550 OA
ATOM     24  O   UNL     1      15.209 -25.597  21.297  1.00  0.00    -0.550 OA
ENDBRANCH  21  22
ENDBRANCH  20  21
ENDBRANCH  19  20
ENDBRANCH  18  19
ENDBRANCH  17  18
ENDBRANCH  16  17
ENDBRANCH  15  16
ENDBRANCH  14  15
ENDBRANCH  13  14
ENDBRANCH   1  13
TORSDOF 20
ENDMDL
MODEL 2
REMARK VINA RESULT:    -5.081      3.850      8.178
REMARK INTER + INTRA:         -13.074
REMARK INTER:                 -11.234
REMARK INTRA:                  -1.841
REMARK UNBOUND:                -2.052
REMARK SMILES CCCCCCCCCCCCCCCCCCCCCC(=O)[O-]
REMARK SMILES IDX 12 1 11 2 10 3 9 4 8 5 7 6 6 7 5 8 4 9 3 10 2 11 1 12 13 13
REMARK SMILES IDX 14 14 15 15 16 16 17 17 18 18 19 19 20 20 21 21 22 22 23 23
REMARK SMILES IDX 24 24
REMARK H PARENT
REMARK Flexibility Score: inf
ROOT
ATOM      1  C   UNL     1      13.125 -22.983  25.364  1.00  0.00     0.000 C 
ENDROOT
BRANCH   1   2
ATOM      2  C   UNL     1      11.684 -23.520  25.458  1.00  0.00     0.000 C 
BRANCH   2   3
ATOM      3  C   UNL     1      10.838 -22.917  26.592  1.00  0.00     0.000 C 
BRANCH   3   4
ATOM      4  C   UNL     1      10.389 -21.458  26.370  1.00  0.00    -0.000 C 
BRANCH   4   5
ATOM      5  C   UNL     1      10.433 -20.586  27.642  1.00  0.00    -0.000 C 
BRANCH   5   6
ATOM      6  C   UNL     1       9.492 -19.370  27.556  1.00  0.00    -0.000 C 
BRANCH   6   7
ATOM      7  C   UNL     1       9.220 -18.734  28.928  1.00  0.00    -0.000 C 
BRANCH   7   8
ATOM      8  C   UNL     1      10.436 -18.808  29.868  1.00  0.00    -0.000 C 
BRANCH   8   9
ATOM      9  C   UNL     1      10.995 -17.410  30.216  1.00  0.00    -0.000 C 
BRANCH   9  10
ATOM     10  C   UNL     1      11.870 -16.794  29.108  1.00  0.00    -0.000 C 
BRANCH  10  11
ATOM     11  C   UNL     1      11.092 -16.054  28.007  1.00  0.00    -0.003 C 
ATOM     12  C   UNL     1      10.174 -14.961  28.557  1.00  0.00     0.004 C 
ENDBRANCH  10  11
ENDBRANCH   9  10
ENDBRANCH   8   9
ENDBRANCH   7   8
ENDBRANCH   6   7
ENDBRANCH   5   6
ENDBRANCH   4   5
ENDBRANCH   3   4
ENDBRANCH   2   3
ENDBRANCH   1   2
BRANCH   1  13
ATOM     13  C   UNL     1      13.409 -22.178  24.077  1.00  0.00     0.000 C 
BRANCH  13  14
ATOM     14  C   UNL     1      14.861 -22.339  23.598  1.00  0.00     0.000 C 
BRANCH  14  15
ATOM     15  C   UNL     1      15.023 -23.433  22.527  1.00  0.00     0.000 C 
BRANCH  15  16
ATOM     16  C   UNL     1      15.358 -22.917  21.112  1.00  0.00     0.000 C 
BRANCH  16  17
ATOM     17  C   UNL     1      14.346 -23.306  20.015  1.00  0.00     0.000 C 
BRANCH  17  18
ATOM     18  C   UNL     1      12.866 -23.062  20.376  1.00  0.00     0.000 C 
BRANCH  18  19
ATOM     19  C   UNL     1      12.045 -24.337  20.640  1.00  0.00     0.000 C 
BRANCH  19  20
ATOM     20  C   UNL     1      11.243 -24.266  21.948  1.00  0.00     0.006 C 
BRANCH  20  21
ATOM     21  C   UNL     1      10.082 -25.265  21.935  1.00  0.00     0.053 C 
BRANCH  21  22
ATOM     22  C   UNL     1       8.819 -24.607  22.394  1.00  0.00     0.041 C 
ATOM     23  O   UNL     1       7.826 -24.536  21.625  1.00  0.00    -0.550 OA
ATOM     24  O   UNL     1       8.757 -24.026  23.655  1.00  0.00    -0.550 OA
ENDBRANCH  21  22
ENDBRANCH  20  21
ENDBRANCH  19  20
ENDBRANCH  18  19
ENDBRANCH  17  18
ENDBRANCH  16  17
ENDBRANCH  15  16
ENDBRANCH  14  15
ENDBRANCH  13  14
ENDBRANCH   1  13
TORSDOF 20
ENDMDL
MODEL 3
REMARK VINA RESULT:    -5.062      4.643      8.119
REMARK INTER + INTRA:         -13.033
REMARK INTER:                 -11.371
REMARK INTRA:                  -1.662
REMARK UNBOUND:                -2.052
REMARK SMILES CCCCCCCCCCCCCCCCCCCCCC(=O)[O-]
REMARK SMILES IDX 12 1 11 2 10 3 9 4 8 5 7 6 6 7 5 8 4 9 3 10 2 11 1 12 13 13
REMARK SMILES IDX 14 14 15 15 16 16 17 17 18 18 19 19 20 20 21 21 22 22 23 23
REMARK SMILES IDX 24 24
REMARK H PARENT
REMARK Flexibility Score: inf
ROOT
ATOM      1  C   UNL     1       9.608 -24.476  25.240  1.00  0.00     0.000 C 
ENDROOT
BRANCH   1   2
ATOM      2  C   UNL     1       9.134 -23.703  23.994  1.00  0.00     0.000 C 
BRANCH   2   3
ATOM      3  C   UNL     1       8.752 -24.581  22.791  1.00  0.00     0.000 C 
BRANCH   3   4
ATOM      4  C   UNL     1       9.941 -25.200  22.028  1.00  0.00    -0.000 C 
BRANCH   4   5
ATOM      5  C   UNL     1      11.221 -24.338  22.051  1.00  0.00    -0.000 C 
BRANCH   5   6
ATOM      6  C   UNL     1      12.042 -24.469  20.754  1.00  0.00    -0.000 C 
BRANCH   6   7
ATOM      7  C   UNL     1      12.730 -23.154  20.355  1.00  0.00    -0.000 C 
BRANCH   7   8
ATOM      8  C   UNL     1      14.221 -23.341  20.021  1.00  0.00    -0.000 C 
BRANCH   8   9
ATOM      9  C   UNL     1      15.144 -22.786  21.129  1.00  0.00    -0.000 C 
BRANCH   9  10
ATOM     10  C   UNL     1      15.013 -23.522  22.477  1.00  0.00    -0.000 C 
BRANCH  10  11
ATOM     11  C   UNL     1      14.943 -22.605  23.709  1.00  0.00    -0.003 C 
ATOM     12  C   UNL     1      13.744 -21.654  23.677  1.00  0.00     0.004 C 
ENDBRANCH  10  11
ENDBRANCH   9  10
ENDBRANCH   8   9
ENDBRANCH   7   8
ENDBRANCH   6   7
ENDBRANCH   5   6
ENDBRANCH   4   5
ENDBRANCH   3   4
ENDBRANCH   2   3
ENDBRANCH   1   2
BRANCH   1  13
ATOM     13  C   UNL     1      10.126 -23.569  26.378  1.00  0.00     0.000 C 
BRANCH  13  14
ATOM     14  C   UNL     1      10.764 -22.275  25.847  1.00  0.00     0.000 C 
BRANCH  14  15
ATOM     15  C   UNL     1      10.023 -21.007  26.306  1.00  0.00     0.000 C 
BRANCH  15  16
ATOM     16  C   UNL     1      10.558 -20.372  27.607  1.00  0.00     0.000 C 
BRANCH  16  17
ATOM     17  C   UNL     1       9.692 -19.234  28.186  1.00  0.00     0.000 C 
BRANCH  17  18
ATOM     18  C   UNL     1      10.353 -18.422  29.319  1.00  0.00     0.000 C 
BRANCH  18  19
ATOM     19  C   UNL     1      11.635 -17.672  28.916  1.00  0.00     0.000 C 
BRANCH  19  20
ATOM     20  C   UNL     1      11.348 -16.392  28.118  1.00  0.00     0.006 C 
BRANCH  20  21
ATOM     21  C   UNL     1      10.183 -15.610  28.734  1.00  0.00     0.053 C 
BRANCH  21  22
ATOM     22  C   UNL     1       9.135 -15.333  27.703  1.00  0.00     0.041 C 
ATOM     23  O   UNL     1       7.993 -14.933  28.052  1.00  0.00    -0.550 OA
ATOM     24  O   UNL     1       9.402 -15.565  26.360  1.00  0.00    -0.550 OA
ENDBRANCH  21  22
ENDBRANCH  20  21
ENDBRANCH  19  20
ENDBRANCH  18  19
ENDBRANCH  17  18
ENDBRANCH  16  17
ENDBRANCH  15  16
ENDBRANCH  14  15
ENDBRANCH  13  14
ENDBRANCH   1  13
TORSDOF 20
ENDMDL
MODEL 4
REMARK VINA RESULT:    -5.012      4.992      7.874
REMARK INTER + INTRA:         -12.924
REMARK INTER:                 -11.044
REMARK INTRA:                  -1.880
REMARK UNBOUND:                -2.052
REMARK SMILES CCCCCCCCCCCCCCCCCCCCCC(=O)[O-]
REMARK SMILES IDX 12 1 11 2 10 3 9 4 8 5 7 6 6 7 5 8 4 9 3 10 2 11 1 12 13 13
REMARK SMILES IDX 14 14 15 15 16 16 17 17 18 18 19 19 20 20 21 21 22 22 23 23
REMARK SMILES IDX 24 24
REMARK H PARENT
REMARK Flexibility Score: inf
ROOT
ATOM      1  C   UNL     1      10.918 -23.113  26.480  1.00  0.00     0.000 C 
ENDROOT
BRANCH   1   2
ATOM      2  C   UNL     1      12.146 -23.366  25.584  1.00  0.00     0.000 C 
BRANCH   2   3
ATOM      3  C   UNL     1      12.264 -22.437  24.365  1.00  0.00     0.000 C 
BRANCH   3   4
ATOM      4  C   UNL     1      13.700 -22.214  23.847  1.00  0.00    -0.000 C 
BRANCH   4   5
ATOM      5  C   UNL     1      14.115 -23.170  22.710  1.00  0.00    -0.000 C 
BRANCH   5   6
ATOM      6  C   UNL     1      14.098 -22.487  21.330  1.00  0.00    -0.000 C 
BRANCH   6   7
ATOM      7  C   UNL     1      13.102 -23.140  20.359  1.00  0.00    -0.000 C 
BRANCH   7   8
ATOM      8  C   UNL     1      12.790 -24.603  20.723  1.00  0.00    -0.000 C 
BRANCH   8   9
ATOM      9  C   UNL     1      11.273 -24.863  20.854  1.00  0.00    -0.000 C 
BRANCH   9  10
ATOM     10  C   UNL     1      10.693 -24.490  22.232  1.00  0.00    -0.000 C 
BRANCH  10  11
ATOM     11  C   UNL     1       9.348 -25.156  22.568  1.00  0.00    -0.003 C 
ATOM     12  C   UNL     1       8.274 -24.153  22.991  1.00  0.00     0.004 C 
ENDBRANCH  10  11
ENDBRANCH   9  10
ENDBRANCH   8   9
ENDBRANCH   7   8
ENDBRANCH   6   7
ENDBRANCH   5   6
ENDBRANCH   4   5
ENDBRANCH   3   4
ENDBRANCH   2   3
ENDBRANCH   1   2
BRANCH   1  13
ATOM     13  C   UNL     1      10.240 -21.747  26.238  1.00  0.00     0.000 C 
BRANCH  13  14
ATOM     14  C   UNL     1      10.595 -20.720  27.326  1.00  0.00     0.000 C 
BRANCH  14  15
ATOM     15  C   UNL     1       9.533 -19.618  27.483  1.00  0.00     0.000 C 
BRANCH  15  16
ATOM     16  C   UNL     1       9.442 -18.992  28.891  1.00  0.00     0.000 C 
BRANCH  16  17
ATOM     17  C   UNL     1      10.790 -18.809  29.615  1.00  0.00     0.000 C 
BRANCH  17  18
ATOM     18  C   UNL     1      11.098 -17.366  30.068  1.00  0.00     0.000 C 
BRANCH  18  19
ATOM     19  C   UNL     1      12.063 -16.593  29.152  1.00  0.00     0.000 C 
BRANCH  19  20
ATOM     20  C   UNL     1      11.341 -15.863  28.011  1.00  0.00     0.006 C 
BRANCH  20  21
ATOM     21  C   UNL     1      10.151 -15.057  28.540  1.00  0.00     0.053 C 
BRANCH  21  22
ATOM     22  C   UNL     1       9.041 -15.041  27.536  1.00  0.00     0.041 C 
ATOM     23  O   UNL     1       8.565 -13.946  27.136  1.00  0.00    -0.550 OA
ATOM     24  O   UNL     1       8.498 -16.235  27.080  1.00  0.00    -0.550 OA
ENDBRANCH  21  22
ENDBRANCH  20  21
ENDBRANCH  19  20
ENDBRANCH  18  19
ENDBRANCH  17  18
ENDBRANCH  16  17
ENDBRANCH  15  16
ENDBRANCH  14  15
ENDBRANCH  13  14
ENDBRANCH   1  13
TORSDOF 20
ENDMDL
MODEL 5
REMARK VINA RESULT:    -5.006      1.438      2.799
REMARK INTER + INTRA:         -12.911
REMARK INTER:                 -10.903
REMARK INTRA:                  -2.008
REMARK UNBOUND:                -2.052
REMARK SMILES CCCCCCCCCCCCCCCCCCCCCC(=O)[O-]
REMARK SMILES IDX 12 1 11 2 10 3 9 4 8 5 7 6 6 7 5 8 4 9 3 10 2 11 1 12 13 13
REMARK SMILES IDX 14 14 15 15 16 16 17 17 18 18 19 19 20 20 21 21 22 22 23 23
REMARK SMILES IDX 24 24
REMARK H PARENT
REMARK Flexibility Score: inf
ROOT
ATOM      1  C   UNL     1      12.615 -23.376  25.867  1.00  0.00     0.000 C 
ENDROOT
BRANCH   1   2
ATOM      2  C   UNL     1      11.326 -22.645  26.288  1.00  0.00     0.000 C 
BRANCH   2   3
ATOM      3  C   UNL     1      10.322 -22.390  25.151  1.00  0.00     0.000 C 
BRANCH   3   4
ATOM      4  C   UNL     1       9.380 -23.569  24.832  1.00  0.00    -0.000 C 
BRANCH   4   5
ATOM      5  C   UNL     1       9.813 -24.409  23.612  1.00  0.00    -0.000 C 
BRANCH   5   6
ATOM      6  C   UNL     1       8.726 -24.468  22.522  1.00  0.00    -0.000 C 
BRANCH   6   7
ATOM      7  C   UNL     1       7.447 -23.715  22.921  1.00  0.00    -0.000 C 
BRANCH   7   8
ATOM      8  C   UNL     1       6.510 -23.462  21.727  1.00  0.00    -0.000 C 
BRANCH   8   9
ATOM      9  C   UNL     1       7.030 -24.114  20.426  1.00  0.00    -0.000 C 
BRANCH   9  10
ATOM     10  C   UNL     1       6.508 -23.445  19.140  1.00  0.00    -0.000 C 
BRANCH  10  11
ATOM     11  C   UNL     1       7.234 -23.866  17.852  1.00  0.00    -0.003 C 
ATOM     12  C   UNL     1       6.388 -24.779  16.962  1.00  0.00     0.004 C 
ENDBRANCH  10  11
ENDBRANCH   9  10
ENDBRANCH   8   9
ENDBRANCH   7   8
ENDBRANCH   6   7
ENDBRANCH   5   6
ENDBRANCH   4   5
ENDBRANCH   3   4
ENDBRANCH   2   3
ENDBRANCH   1   2
BRANCH   1  13
ATOM     13  C   UNL     1      13.467 -22.599  24.838  1.00  0.00     0.000 C 
BRANCH  13  14
ATOM     14  C   UNL     1      13.429 -23.246  23.445  1.00  0.00     0.000 C 
BRANCH  14  15
ATOM     15  C   UNL     1      12.612 -22.433  22.425  1.00  0.00     0.000 C 
BRANCH  15  16
ATOM     16  C   UNL     1      12.414 -23.111  21.054  1.00  0.00     0.000 C 
BRANCH  16  17
ATOM     17  C   UNL     1      13.504 -22.805  20.007  1.00  0.00     0.000 C 
BRANCH  17  18
ATOM     18  C   UNL     1      14.853 -23.517  20.240  1.00  0.00     0.000 C 
BRANCH  18  19
ATOM     19  C   UNL     1      14.967 -24.912  19.601  1.00  0.00     0.000 C 
BRANCH  19  20
ATOM     20  C   UNL     1      15.027 -26.038  20.642  1.00  0.00     0.006 C 
BRANCH  20  21
ATOM     21  C   UNL     1      15.770 -25.584  21.902  1.00  0.00     0.053 C 
BRANCH  21  22
ATOM     22  C   UNL     1      16.530 -26.725  22.503  1.00  0.00     0.041 C 
ATOM     23  O   UNL     1      17.717 -26.563  22.887  1.00  0.00    -0.550 OA
ATOM     24  O   UNL     1      15.943 -27.981  22.593  1.00  0.00    -0.550 OA
ENDBRANCH  21  22
ENDBRANCH  20  21
ENDBRANCH  19  20
ENDBRANCH  18  19
ENDBRANCH  17  18
ENDBRANCH  16  17
ENDBRANCH  15  16
ENDBRANCH  14  15
ENDBRANCH  13  14
ENDBRANCH   1  13
TORSDOF 20
ENDMDL
MODEL 6
REMARK VINA RESULT:    -4.953      3.221      6.539
REMARK INTER + INTRA:         -12.796
REMARK INTER:                 -10.650
REMARK INTRA:                  -2.146
REMARK UNBOUND:                -2.052
REMARK SMILES CCCCCCCCCCCCCCCCCCCCCC(=O)[O-]
REMARK SMILES IDX 12 1 11 2 10 3 9 4 8 5 7 6 6 7 5 8 4 9 3 10 2 11 1 12 13 13
REMARK SMILES IDX 14 14 15 15 16 16 17 17 18 18 19 19 20 20 21 21 22 22 23 23
REMARK SMILES IDX 24 24
REMARK H PARENT
REMARK Flexibility Score: inf
ROOT
ATOM      1  C   UNL     1      11.184 -24.329  21.930  1.00  0.00     0.000 C 
ENDROOT
BRANCH   1   2
ATOM      2  C   UNL     1      10.042 -25.362  21.887  1.00  0.00     0.000 C 
BRANCH   2   3
ATOM      3  C   UNL     1       8.765 -24.950  22.639  1.00  0.00     0.000 C 
BRANCH   3   4
ATOM      4  C   UNL     1       8.998 -24.211  23.972  1.00  0.00    -0.000 C 
BRANCH   4   5
ATOM      5  C   UNL     1       9.541 -25.109  25.103  1.00  0.00    -0.000 C 
BRANCH   5   6
ATOM      6  C   UNL     1      10.172 -24.297  26.250  1.00  0.00    -0.000 C 
BRANCH   6   7
ATOM      7  C   UNL     1       9.720 -22.828  26.251  1.00  0.00    -0.000 C 
BRANCH   7   8
ATOM      8  C   UNL     1      10.901 -21.843  26.175  1.00  0.00    -0.000 C 
BRANCH   8   9
ATOM      9  C   UNL     1      11.810 -22.112  24.955  1.00  0.00    -0.000 C 
BRANCH   9  10
ATOM     10  C   UNL     1      13.153 -22.776  25.312  1.00  0.00    -0.000 C 
BRANCH  10  11
ATOM     11  C   UNL     1      14.288 -22.518  24.307  1.00  0.00    -0.003 C 
ATOM     12  C   UNL     1      14.357 -21.061  23.846  1.00  0.00     0.004 C 
ENDBRANCH  10  11
ENDBRANCH   9  10
ENDBRANCH   8   9
ENDBRANCH   7   8
ENDBRANCH   6   7
ENDBRANCH   5   6
ENDBRANCH   4   5
ENDBRANCH   3   4
ENDBRANCH   2   3
ENDBRANCH   1   2
BRANCH   1  13
ATOM     13  C   UNL     1      12.060 -24.313  20.658  1.00  0.00     0.000 C 
BRANCH  13  14
ATOM     14  C   UNL     1      12.850 -23.002  20.511  1.00  0.00     0.000 C 
BRANCH  14  15
ATOM     15  C   UNL     1      14.272 -23.214  19.964  1.00  0.00     0.000 C 
BRANCH  15  16
ATOM     16  C   UNL     1      15.378 -23.318  21.036  1.00  0.00     0.000 C 
BRANCH  16  17
ATOM     17  C   UNL     1      15.388 -24.632  21.843  1.00  0.00     0.000 C 
BRANCH  17  18
ATOM     18  C   UNL     1      15.352 -25.920  20.995  1.00  0.00     0.000 C 
BRANCH  18  19
ATOM     19  C   UNL     1      15.660 -27.214  21.769  1.00  0.00     0.000 C 
BRANCH  19  20
ATOM     20  C   UNL     1      16.780 -27.033  22.804  1.00  0.00     0.006 C 
BRANCH  20  21
ATOM     21  C   UNL     1      16.722 -28.129  23.873  1.00  0.00     0.053 C 
BRANCH  21  22
ATOM     22  C   UNL     1      18.102 -28.509  24.310  1.00  0.00     0.041 C 
ATOM     23  O   UNL     1      18.569 -29.641  24.019  1.00  0.00    -0.550 OA
ATOM     24  O   UNL     1      18.854 -27.632  25.081  1.00  0.00    -0.550 OA
ENDBRANCH  21  22
ENDBRANCH  20  21
ENDBRANCH  19  20
ENDBRANCH  18  19
ENDBRANCH  17  18
ENDBRANCH  16  17
ENDBRANCH  15  16
ENDBRANCH  14  15
ENDBRANCH  13  14
ENDBRANCH   1  13
TORSDOF 20
ENDMDL
MODEL 7
REMARK VINA RESULT:    -4.932      6.254      9.351
REMARK INTER + INTRA:         -12.750
REMARK INTER:                 -10.660
REMARK INTRA:                  -2.091
REMARK UNBOUND:                -2.052
REMARK SMILES CCCCCCCCCCCCCCCCCCCCCC(=O)[O-]
REMARK SMILES IDX 12 1 11 2 10 3 9 4 8 5 7 6 6 7 5 8 4 9 3 10 2 11 1 12 13 13
REMARK SMILES IDX 14 14 15 15 16 16 17 17 18 18 19 19 20 20 21 21 22 22 23 23
REMARK SMILES IDX 24 24
REMARK H PARENT
REMARK Flexibility Score: inf
ROOT
ATOM      1  C   UNL     1      16.647 -26.844  22.579  1.00  0.00     0.000 C 
ENDROOT
BRANCH   1   2
ATOM      2  C   UNL     1      15.806 -25.925  21.672  1.00  0.00     0.000 C 
BRANCH   2   3
ATOM      3  C   UNL     1      15.521 -24.527  22.247  1.00  0.00     0.000 C 
BRANCH   3   4
ATOM      4  C   UNL     1      15.402 -23.400  21.201  1.00  0.00    -0.000 C 
BRANCH   4   5
ATOM      5  C   UNL     1      14.411 -23.705  20.058  1.00  0.00    -0.000 C 
BRANCH   5   6
ATOM      6  C   UNL     1      12.983 -23.222  20.370  1.00  0.00    -0.000 C 
BRANCH   6   7
ATOM      7  C   UNL     1      12.057 -24.363  20.818  1.00  0.00    -0.000 C 
BRANCH   7   8
ATOM      8  C   UNL     1      11.288 -24.032  22.110  1.00  0.00    -0.000 C 
BRANCH   8   9
ATOM      9  C   UNL     1      11.976 -22.919  22.932  1.00  0.00    -0.000 C 
BRANCH   9  10
ATOM     10  C   UNL     1      12.617 -23.415  24.241  1.00  0.00    -0.000 C 
BRANCH  10  11
ATOM     11  C   UNL     1      13.705 -22.494  24.818  1.00  0.00    -0.003 C 
ATOM     12  C   UNL     1      14.128 -21.390  23.847  1.00  0.00     0.004 C 
ENDBRANCH  10  11
ENDBRANCH   9  10
ENDBRANCH   8   9
ENDBRANCH   7   8
ENDBRANCH   6   7
ENDBRANCH   5   6
ENDBRANCH   4   5
ENDBRANCH   3   4
ENDBRANCH   2   3
ENDBRANCH   1   2
BRANCH   1  13
ATOM     13  C   UNL     1      18.030 -26.262  22.947  1.00  0.00     0.000 C 
BRANCH  13  14
ATOM     14  C   UNL     1      18.779 -27.141  23.961  1.00  0.00     0.000 C 
BRANCH  14  15
ATOM     15  C   UNL     1      19.783 -26.349  24.817  1.00  0.00     0.000 C 
BRANCH  15  16
ATOM     16  C   UNL     1      21.196 -26.965  24.907  1.00  0.00     0.000 C 
BRANCH  16  17
ATOM     17  C   UNL     1      22.289 -26.022  25.449  1.00  0.00     0.000 C 
BRANCH  17  18
ATOM     18  C   UNL     1      23.138 -26.598  26.600  1.00  0.00     0.000 C 
BRANCH  18  19
ATOM     19  C   UNL     1      23.228 -25.704  27.849  1.00  0.00     0.000 C 
BRANCH  19  20
ATOM     20  C   UNL     1      22.524 -26.316  29.069  1.00  0.00     0.006 C 
BRANCH  20  21
ATOM     21  C   UNL     1      21.003 -26.305  28.889  1.00  0.00     0.053 C 
BRANCH  21  22
ATOM     22  C   UNL     1      20.469 -27.703  28.855  1.00  0.00     0.041 C 
ATOM     23  O   UNL     1      20.895 -28.563  29.669  1.00  0.00    -0.550 OA
ATOM     24  O   UNL     1      19.537 -28.068  27.892  1.00  0.00    -0.550 OA
ENDBRANCH  21  22
ENDBRANCH  20  21
ENDBRANCH  19  20
ENDBRANCH  18  19
ENDBRANCH  17  18
ENDBRANCH  16  17
ENDBRANCH  15  16
ENDBRANCH  14  15
ENDBRANCH  13  14
ENDBRANCH   1  13
TORSDOF 20
ENDMDL
MODEL 8
REMARK VINA RESULT:    -4.920      5.718     11.091
REMARK INTER + INTRA:         -12.724
REMARK INTER:                 -11.397
REMARK INTRA:                  -1.328
REMARK UNBOUND:                -2.052
REMARK SMILES CCCCCCCCCCCCCCCCCCCCCC(=O)[O-]
REMARK SMILES IDX 12 1 11 2 10 3 9 4 8 5 7 6 6 7 5 8 4 9 3 10 2 11 1 12 13 13
REMARK SMILES IDX 14 14 15 15 16 16 17 17 18 18 19 19 20 20 21 21 22 22 23 23
REMARK SMILES IDX 24 24
REMARK H PARENT
REMARK Flexibility Score: inf
ROOT
ATOM      1  C   UNL     1      14.941 -25.864  20.963  1.00  0.00     0.000 C 
ENDROOT
BRANCH   1   2
ATOM      2  C   UNL     1      16.003 -25.519  22.024  1.00  0.00     0.000 C 
BRANCH   2   3
ATOM      3  C   UNL     1      16.768 -26.725  22.594  1.00  0.00     0.000 C 
BRANCH   3   4
ATOM      4  C   UNL     1      18.199 -26.422  23.085  1.00  0.00    -0.000 C 
BRANCH   4   5
ATOM      5  C   UNL     1      18.750 -27.452  24.093  1.00  0.00    -0.000 C 
BRANCH   5   6
ATOM      6  C   UNL     1      19.640 -26.804  25.170  1.00  0.00    -0.000 C 
BRANCH   6   7
ATOM      7  C   UNL     1      19.182 -27.142  26.598  1.00  0.00    -0.000 C 
BRANCH   7   8
ATOM      8  C   UNL     1      19.796 -26.207  27.655  1.00  0.00    -0.000 C 
BRANCH   8   9
ATOM      9  C   UNL     1      20.545 -26.984  28.760  1.00  0.00    -0.000 C 
BRANCH   9  10
ATOM     10  C   UNL     1      21.854 -26.313  29.218  1.00  0.00    -0.000 C 
BRANCH  10  11
ATOM     11  C   UNL     1      23.075 -26.607  28.330  1.00  0.00    -0.003 C 
ATOM     12  C   UNL     1      23.393 -25.469  27.358  1.00  0.00     0.004 C 
ENDBRANCH  10  11
ENDBRANCH   9  10
ENDBRANCH   8   9
ENDBRANCH   7   8
ENDBRANCH   6   7
ENDBRANCH   5   6
ENDBRANCH   4   5
ENDBRANCH   3   4
ENDBRANCH   2   3
ENDBRANCH   1   2
BRANCH   1  13
ATOM     13  C   UNL     1      14.980 -24.950  19.719  1.00  0.00     0.000 C 
BRANCH  13  14
ATOM     14  C   UNL     1      14.858 -23.462  20.086  1.00  0.00     0.000 C 
BRANCH  14  15
ATOM     15  C   UNL     1      13.399 -22.996  20.230  1.00  0.00     0.000 C 
BRANCH  15  16
ATOM     16  C   UNL     1      12.951 -22.683  21.673  1.00  0.00     0.000 C 
BRANCH  16  17
ATOM     17  C   UNL     1      14.094 -22.380  22.663  1.00  0.00     0.000 C 
BRANCH  17  18
ATOM     18  C   UNL     1      13.648 -22.118  24.117  1.00  0.00     0.000 C 
BRANCH  18  19
ATOM     19  C   UNL     1      12.943 -23.302  24.801  1.00  0.00     0.000 C 
BRANCH  19  20
ATOM     20  C   UNL     1      11.728 -22.869  25.633  1.00  0.00     0.006 C 
BRANCH  20  21
ATOM     21  C   UNL     1      11.276 -23.993  26.572  1.00  0.00     0.053 C 
BRANCH  21  22
ATOM     22  C   UNL     1       9.988 -24.589  26.094  1.00  0.00     0.041 C 
ATOM     23  O   UNL     1       9.373 -24.073  25.125  1.00  0.00    -0.550 OA
ATOM     24  O   UNL     1       9.443 -25.684  26.752  1.00  0.00    -0.550 OA
ENDBRANCH  21  22
ENDBRANCH  20  21
ENDBRANCH  19  20
ENDBRANCH  18  19
ENDBRANCH  17  18
ENDBRANCH  16  17
ENDBRANCH  15  16
ENDBRANCH  14  15
ENDBRANCH  13  14
ENDBRANCH   1  13
TORSDOF 20
ENDMDL
MODEL 9
REMARK VINA RESULT:    -4.861      4.402      7.629
REMARK INTER + INTRA:         -12.597
REMARK INTER:                 -10.272
REMARK INTRA:                  -2.325
REMARK UNBOUND:                -2.052
REMARK SMILES CCCCCCCCCCCCCCCCCCCCCC(=O)[O-]
REMARK SMILES IDX 12 1 11 2 10 3 9 4 8 5 7 6 6 7 5 8 4 9 3 10 2 11 1 12 13 13
REMARK SMILES IDX 14 14 15 15 16 16 17 17 18 18 19 19 20 20 21 21 22 22 23 23
REMARK SMILES IDX 24 24
REMARK H PARENT
REMARK Flexibility Score: inf
ROOT
ATOM      1  C   UNL     1      13.115 -22.968  25.406  1.00  0.00     0.000 C 
ENDROOT
BRANCH   1   2
ATOM      2  C   UNL     1      12.972 -21.796  24.416  1.00  0.00     0.000 C 
BRANCH   2   3
ATOM      3  C   UNL     1      14.241 -21.464  23.614  1.00  0.00     0.000 C 
BRANCH   3   4
ATOM      4  C   UNL     1      15.383 -22.493  23.739  1.00  0.00    -0.000 C 
BRANCH   4   5
ATOM      5  C   UNL     1      15.750 -23.190  22.413  1.00  0.00    -0.000 C 
BRANCH   5   6
ATOM      6  C   UNL     1      14.612 -24.081  21.881  1.00  0.00    -0.000 C 
BRANCH   6   7
ATOM      7  C   UNL     1      14.139 -23.663  20.479  1.00  0.00    -0.000 C 
BRANCH   7   8
ATOM      8  C   UNL     1      12.638 -23.328  20.435  1.00  0.00    -0.000 C 
BRANCH   8   9
ATOM      9  C   UNL     1      11.902 -23.765  21.721  1.00  0.00    -0.000 C 
BRANCH   9  10
ATOM     10  C   UNL     1      10.846 -24.864  21.494  1.00  0.00    -0.000 C 
BRANCH  10  11
ATOM     11  C   UNL     1       9.769 -24.960  22.587  1.00  0.00    -0.003 C 
ATOM     12  C   UNL     1       8.346 -24.853  22.034  1.00  0.00     0.004 C 
ENDBRANCH  10  11
ENDBRANCH   9  10
ENDBRANCH   8   9
ENDBRANCH   7   8
ENDBRANCH   6   7
ENDBRANCH   5   6
ENDBRANCH   4   5
ENDBRANCH   3   4
ENDBRANCH   2   3
ENDBRANCH   1   2
BRANCH   1  13
ATOM     13  C   UNL     1      11.892 -23.912  25.438  1.00  0.00     0.000 C 
BRANCH  13  14
ATOM     14  C   UNL     1      10.737 -23.339  26.276  1.00  0.00     0.000 C 
BRANCH  14  15
ATOM     15  C   UNL     1       9.724 -22.539  25.438  1.00  0.00     0.000 C 
BRANCH  15  16
ATOM     16  C   UNL     1       9.500 -21.083  25.897  1.00  0.00     0.000 C 
BRANCH  16  17
ATOM     17  C   UNL     1      10.336 -20.644  27.116  1.00  0.00     0.000 C 
BRANCH  17  18
ATOM     18  C   UNL     1       9.816 -19.389  27.847  1.00  0.00     0.000 C 
BRANCH  18  19
ATOM     19  C   UNL     1      10.734 -18.864  28.965  1.00  0.00     0.000 C 
BRANCH  19  20
ATOM     20  C   UNL     1      11.242 -17.440  28.696  1.00  0.00     0.006 C 
BRANCH  20  21
ATOM     21  C   UNL     1      10.292 -16.396  29.292  1.00  0.00     0.053 C 
BRANCH  21  22
ATOM     22  C   UNL     1       9.250 -16.005  28.291  1.00  0.00     0.041 C 
ATOM     23  O   UNL     1       9.587 -15.653  27.131  1.00  0.00    -0.550 OA
ATOM     24  O   UNL     1       7.910 -15.979  28.657  1.00  0.00    -0.550 OA
ENDBRANCH  21  22
ENDBRANCH  20  21
ENDBRANCH  19  20
ENDBRANCH  18  19
ENDBRANCH  17  18
ENDBRANCH  16  17
ENDBRANCH  15  16
ENDBRANCH  14  15
ENDBRANCH  13  14
ENDBRANCH   1  13
TORSDOF 20
ENDMDL
