MODEL 1
REMARK VINA RESULT:    -4.952      0.000      0.000
REMARK INTER + INTRA:          -6.247
REMARK INTER:                  -5.965
REMARK INTRA:                  -0.282
REMARK UNBOUND:                -0.282
REMARK SMILES O=c1c(O)c(-c2ccc(O)c(O)c2)oc2cc(O)cc(O)c12
REMARK SMILES IDX 5 1 3 2 2 3 1 4 22 5 20 6 19 7 17 8 16 9 15 10 14 11 6 12
REMARK SMILES IDX 7 13 8 14 9 15 13 16 11 17 10 18 12 20 4 22 21 24 18 26
REMARK H PARENT 10 19 12 21 4 23 21 25 18 27
REMARK Flexibility Score: inf
ROOT
ATOM      1  C   UNL     1      59.985 -16.479   2.921  1.00  0.00     0.180 A 
ATOM      2  C   UNL     1      60.633 -15.283   2.568  1.00  0.00     0.208 A 
ATOM      3  C   UNL     1      61.894 -15.347   1.954  1.00  0.00     0.238 A 
ATOM      4  O   UNL     1      62.444 -14.274   1.592  1.00  0.00    -0.285 OA
ATOM      5  C   UNL     1      62.500 -16.604   1.716  1.00  0.00     0.111 A 
ATOM      6  C   UNL     1      63.792 -16.785   1.138  1.00  0.00     0.134 A 
ATOM      7  C   UNL     1      64.234 -18.077   0.829  1.00  0.00     0.093 A 
ATOM      8  C   UNL     1      63.463 -19.196   1.136  1.00  0.00     0.123 A 
ATOM      9  C   UNL     1      62.223 -19.034   1.756  1.00  0.00     0.094 A 
ATOM     10  C   UNL     1      61.737 -17.756   2.044  1.00  0.00     0.146 A 
ATOM     11  O   UNL     1      60.549 -17.645   2.624  1.00  0.00    -0.452 OA
ENDROOT
BRANCH   1  12
ATOM     12  C   UNL     1      58.666 -16.493   3.592  1.00  0.00     0.025 A 
ATOM     13  C   UNL     1      57.482 -16.736   2.872  1.00  0.00     0.016 A 
ATOM     14  C   UNL     1      56.245 -16.719   3.522  1.00  0.00     0.051 A 
ATOM     15  C   UNL     1      56.170 -16.450   4.894  1.00  0.00     0.157 A 
ATOM     16  C   UNL     1      58.582 -16.202   4.964  1.00  0.00     0.062 A 
ATOM     17  C   UNL     1      57.346 -16.186   5.617  1.00  0.00     0.158 A 
BRANCH  15  18
ATOM     18  O   UNL     1      54.934 -16.436   5.539  1.00  0.00    -0.504 OA
ATOM     19  H   UNL     1      54.460 -17.294   5.796  1.00  0.00     0.293 HD
ENDBRANCH  15  18
BRANCH  17  20
ATOM     20  O   UNL     1      57.304 -15.907   6.983  1.00  0.00    -0.504 OA
ATOM     21  H   UNL     1      58.051 -15.412   7.455  1.00  0.00     0.293 HD
ENDBRANCH  17  20
ENDBRANCH   1  12
BRANCH   2  22
ATOM     22  O   UNL     1      60.008 -14.053   2.792  1.00  0.00    -0.502 OA
ATOM     23  H   UNL     1      60.220 -13.474   3.596  1.00  0.00     0.293 HD
ENDBRANCH   2  22
BRANCH   6  24
ATOM     24  O   UNL     1      64.682 -15.740   0.875  1.00  0.00    -0.507 OA
ATOM     25  H   UNL     1      65.469 -15.496   1.456  1.00  0.00     0.293 HD
ENDBRANCH   6  24
BRANCH   8  26
ATOM     26  O   UNL     1      63.942 -20.467   0.828  1.00  0.00    -0.508 OA
ATOM     27  H   UNL     1      63.470 -21.065   0.159  1.00  0.00     0.293 HD
ENDBRANCH   8  26
TORSDOF 6
ENDMDL
MODEL 2
REMARK VINA RESULT:    -4.923      7.072     11.752
REMARK INTER + INTRA:          -6.212
REMARK INTER:                  -6.047
REMARK INTRA:                  -0.166
REMARK UNBOUND:                -0.282
REMARK SMILES O=c1c(O)c(-c2ccc(O)c(O)c2)oc2cc(O)cc(O)c12
REMARK SMILES IDX 5 1 3 2 2 3 1 4 22 5 20 6 19 7 17 8 16 9 15 10 14 11 6 12
REMARK SMILES IDX 7 13 8 14 9 15 13 16 11 17 10 18 12 20 4 22 21 24 18 26
REMARK H PARENT 10 19 12 21 4 23 21 25 18 27
REMARK Flexibility Score: inf
ROOT
ATOM      1  C   UNL     1      67.616 -15.162  -4.202  1.00  0.00     0.180 A 
ATOM      2  C   UNL     1      68.457 -15.790  -3.268  1.00  0.00     0.208 A 
ATOM      3  C   UNL     1      67.882 -16.564  -2.247  1.00  0.00     0.238 A 
ATOM      4  O   UNL     1      68.642 -17.167  -1.446  1.00  0.00    -0.285 OA
ATOM      5  C   UNL     1      66.474 -16.686  -2.162  1.00  0.00     0.111 A 
ATOM      6  C   UNL     1      65.783 -17.411  -1.146  1.00  0.00     0.134 A 
ATOM      7  C   UNL     1      64.395 -17.573  -1.237  1.00  0.00     0.093 A 
ATOM      8  C   UNL     1      63.666 -16.984  -2.268  1.00  0.00     0.123 A 
ATOM      9  C   UNL     1      64.325 -16.222  -3.235  1.00  0.00     0.094 A 
ATOM     10  C   UNL     1      65.713 -16.072  -3.192  1.00  0.00     0.146 A 
ATOM     11  O   UNL     1      66.303 -15.350  -4.136  1.00  0.00    -0.452 OA
ENDROOT
BRANCH   1  12
ATOM     12  C   UNL     1      68.145 -14.311  -5.293  1.00  0.00     0.025 A 
ATOM     13  C   UNL     1      68.870 -13.138  -5.018  1.00  0.00     0.016 A 
ATOM     14  C   UNL     1      69.339 -12.337  -6.062  1.00  0.00     0.051 A 
ATOM     15  C   UNL     1      69.081 -12.688  -7.394  1.00  0.00     0.157 A 
ATOM     16  C   UNL     1      67.872 -14.647  -6.629  1.00  0.00     0.062 A 
ATOM     17  C   UNL     1      68.341 -13.848  -7.677  1.00  0.00     0.158 A 
BRANCH  15  18
ATOM     18  O   UNL     1      69.553 -11.888  -8.433  1.00  0.00    -0.504 OA
ATOM     19  H   UNL     1      70.267 -11.186  -8.281  1.00  0.00     0.293 HD
ENDBRANCH  15  18
BRANCH  17  20
ATOM     20  O   UNL     1      68.061 -14.221  -8.991  1.00  0.00    -0.504 OA
ATOM     21  H   UNL     1      67.786 -13.548  -9.696  1.00  0.00     0.293 HD
ENDBRANCH  17  20
ENDBRANCH   1  12
BRANCH   2  22
ATOM     22  O   UNL     1      69.845 -15.675  -3.382  1.00  0.00    -0.502 OA
ATOM     23  H   UNL     1      70.307 -14.783  -3.518  1.00  0.00     0.293 HD
ENDBRANCH   2  22
BRANCH   6  24
ATOM     24  O   UNL     1      66.404 -17.963  -0.022  1.00  0.00    -0.507 OA
ATOM     25  H   UNL     1      67.344 -18.327  -0.006  1.00  0.00     0.293 HD
ENDBRANCH   6  24
BRANCH   8  26
ATOM     26  O   UNL     1      62.284 -17.153  -2.318  1.00  0.00    -0.508 OA
ATOM     27  H   UNL     1      61.731 -17.244  -1.473  1.00  0.00     0.293 HD
ENDBRANCH   8  26
TORSDOF 6
ENDMDL
MODEL 3
REMARK VINA RESULT:    -4.891     12.291     14.331
REMARK INTER + INTRA:          -6.174
REMARK INTER:                  -5.888
REMARK INTRA:                  -0.286
REMARK UNBOUND:                -0.282
REMARK SMILES O=c1c(O)c(-c2ccc(O)c(O)c2)oc2cc(O)cc(O)c12
REMARK SMILES IDX 5 1 3 2 2 3 1 4 22 5 20 6 19 7 17 8 16 9 15 10 14 11 6 12
REMARK SMILES IDX 7 13 8 14 9 15 13 16 11 17 10 18 12 20 4 22 21 24 18 26
REMARK H PARENT 10 19 12 21 4 23 21 25 18 27
REMARK Flexibility Score: inf
ROOT
ATOM      1  C   UNL     1      52.934  -7.545  -3.956  1.00  0.00     0.180 A 
ATOM      2  C   UNL     1      51.961  -6.789  -3.280  1.00  0.00     0.208 A 
ATOM      3  C   UNL     1      52.334  -6.061  -2.139  1.00  0.00     0.238 A 
ATOM      4  O   UNL     1      51.470  -5.344  -1.571  1.00  0.00    -0.285 OA
ATOM      5  C   UNL     1      53.672  -6.111  -1.679  1.00  0.00     0.111 A 
ATOM      6  C   UNL     1      54.152  -5.445  -0.511  1.00  0.00     0.134 A 
ATOM      7  C   UNL     1      55.523  -5.458  -0.224  1.00  0.00     0.093 A 
ATOM      8  C   UNL     1      56.420  -6.165  -1.023  1.00  0.00     0.123 A 
ATOM      9  C   UNL     1      55.953  -6.869  -2.134  1.00  0.00     0.094 A 
ATOM     10  C   UNL     1      54.597  -6.846  -2.467  1.00  0.00     0.146 A 
ATOM     11  O   UNL     1      54.194  -7.519  -3.537  1.00  0.00    -0.452 OA
ENDROOT
BRANCH   1  12
ATOM     12  C   UNL     1      52.612  -8.358  -5.151  1.00  0.00     0.025 A 
ATOM     13  C   UNL     1      52.468  -7.766  -6.419  1.00  0.00     0.016 A 
ATOM     14  C   UNL     1      52.140  -8.549  -7.529  1.00  0.00     0.051 A 
ATOM     15  C   UNL     1      51.938  -9.928  -7.388  1.00  0.00     0.157 A 
ATOM     16  C   UNL     1      52.387  -9.737  -5.012  1.00  0.00     0.062 A 
ATOM     17  C   UNL     1      52.060 -10.523  -6.121  1.00  0.00     0.158 A 
BRANCH  15  18
ATOM     18  O   UNL     1      51.612 -10.706  -8.499  1.00  0.00    -0.504 OA
ATOM     19  H   UNL     1      51.701 -10.348  -9.442  1.00  0.00     0.293 HD
ENDBRANCH  15  18
BRANCH  17  20
ATOM     20  O   UNL     1      51.858 -11.892  -5.947  1.00  0.00    -0.504 OA
ATOM     21  H   UNL     1      52.565 -12.494  -5.543  1.00  0.00     0.293 HD
ENDBRANCH  17  20
ENDBRANCH   1  12
BRANCH   2  22
ATOM     22  O   UNL     1      50.650  -6.736  -3.765  1.00  0.00    -0.502 OA
ATOM     23  H   UNL     1      49.850  -6.624  -3.156  1.00  0.00     0.293 HD
ENDBRANCH   2  22
BRANCH   6  24
ATOM     24  O   UNL     1      53.328  -4.786   0.406  1.00  0.00    -0.507 OA
ATOM     25  H   UNL     1      52.638  -4.093   0.163  1.00  0.00     0.293 HD
ENDBRANCH   6  24
BRANCH   8  26
ATOM     26  O   UNL     1      57.774  -6.169  -0.697  1.00  0.00    -0.508 OA
ATOM     27  H   UNL     1      58.434  -6.766  -1.183  1.00  0.00     0.293 HD
ENDBRANCH   8  26
TORSDOF 6
ENDMDL
MODEL 4
REMARK VINA RESULT:    -4.785      9.518     11.920
REMARK INTER + INTRA:          -6.047
REMARK INTER:                  -5.768
REMARK INTRA:                  -0.278
REMARK UNBOUND:                -0.282
REMARK SMILES O=c1c(O)c(-c2ccc(O)c(O)c2)oc2cc(O)cc(O)c12
REMARK SMILES IDX 5 1 3 2 2 3 1 4 22 5 20 6 19 7 17 8 16 9 15 10 14 11 6 12
REMARK SMILES IDX 7 13 8 14 9 15 13 16 11 17 10 18 12 20 4 22 21 24 18 26
REMARK H PARENT 10 19 12 21 4 23 21 25 18 27
REMARK Flexibility Score: inf
ROOT
ATOM      1  C   UNL     1      61.876  -6.960   5.255  1.00  0.00     0.180 A 
ATOM      2  C   UNL     1      61.043  -7.822   5.990  1.00  0.00     0.208 A 
ATOM      3  C   UNL     1      59.783  -8.159   5.471  1.00  0.00     0.238 A 
ATOM      4  O   UNL     1      59.066  -8.973   6.109  1.00  0.00    -0.285 OA
ATOM      5  C   UNL     1      59.364  -7.618   4.232  1.00  0.00     0.111 A 
ATOM      6  C   UNL     1      58.092  -7.859   3.631  1.00  0.00     0.134 A 
ATOM      7  C   UNL     1      57.836  -7.378   2.341  1.00  0.00     0.093 A 
ATOM      8  C   UNL     1      58.777  -6.610   1.658  1.00  0.00     0.123 A 
ATOM      9  C   UNL     1      60.002  -6.317   2.261  1.00  0.00     0.094 A 
ATOM     10  C   UNL     1      60.301  -6.814   3.532  1.00  0.00     0.146 A 
ATOM     11  O   UNL     1      61.481  -6.522   4.065  1.00  0.00    -0.452 OA
ENDROOT
BRANCH   1  12
ATOM     12  C   UNL     1      63.208  -6.540   5.747  1.00  0.00     0.025 A 
ATOM     13  C   UNL     1      64.386  -7.140   5.268  1.00  0.00     0.016 A 
ATOM     14  C   UNL     1      65.631  -6.745   5.765  1.00  0.00     0.051 A 
ATOM     15  C   UNL     1      65.717  -5.756   6.754  1.00  0.00     0.157 A 
ATOM     16  C   UNL     1      63.299  -5.565   6.754  1.00  0.00     0.062 A 
ATOM     17  C   UNL     1      64.543  -5.167   7.253  1.00  0.00     0.158 A 
BRANCH  15  18
ATOM     18  O   UNL     1      66.961  -5.364   7.246  1.00  0.00    -0.504 OA
ATOM     19  H   UNL     1      67.316  -5.709   8.130  1.00  0.00     0.293 HD
ENDBRANCH  15  18
BRANCH  17  20
ATOM     20  O   UNL     1      64.594  -4.186   8.243  1.00  0.00    -0.504 OA
ATOM     21  H   UNL     1      64.725  -4.414   9.221  1.00  0.00     0.293 HD
ENDBRANCH  17  20
ENDBRANCH   1  12
BRANCH   2  22
ATOM     22  O   UNL     1      61.486  -8.362   7.201  1.00  0.00    -0.502 OA
ATOM     23  H   UNL     1      61.645  -9.355   7.327  1.00  0.00     0.293 HD
ENDBRANCH   2  22
BRANCH   6  24
ATOM     24  O   UNL     1      57.046  -8.537   4.264  1.00  0.00    -0.507 OA
ATOM     25  H   UNL     1      56.768  -9.484   4.059  1.00  0.00     0.293 HD
ENDBRANCH   6  24
BRANCH   8  26
ATOM     26  O   UNL     1      58.481  -6.134   0.383  1.00  0.00    -0.508 OA
ATOM     27  H   UNL     1      57.831  -6.618  -0.226  1.00  0.00     0.293 HD
ENDBRANCH   8  26
TORSDOF 6
ENDMDL
MODEL 5
REMARK VINA RESULT:    -4.771      1.959      6.979
REMARK INTER + INTRA:          -6.029
REMARK INTER:                  -5.883
REMARK INTRA:                  -0.147
REMARK UNBOUND:                -0.282
REMARK SMILES O=c1c(O)c(-c2ccc(O)c(O)c2)oc2cc(O)cc(O)c12
REMARK SMILES IDX 5 1 3 2 2 3 1 4 22 5 20 6 19 7 17 8 16 9 15 10 14 11 6 12
REMARK SMILES IDX 7 13 8 14 9 15 13 16 11 17 10 18 12 20 4 22 21 24 18 26
REMARK H PARENT 10 19 12 21 4 23 21 25 18 27
REMARK Flexibility Score: inf
ROOT
ATOM      1  C   UNL     1      62.290 -17.132   2.184  1.00  0.00     0.180 A 
ATOM      2  C   UNL     1      62.182 -16.290   3.304  1.00  0.00     0.208 A 
ATOM      3  C   UNL     1      60.934 -16.144   3.929  1.00  0.00     0.238 A 
ATOM      4  O   UNL     1      60.856 -15.431   4.964  1.00  0.00    -0.285 OA
ATOM      5  C   UNL     1      59.805 -16.827   3.416  1.00  0.00     0.111 A 
ATOM      6  C   UNL     1      58.483 -16.719   3.945  1.00  0.00     0.134 A 
ATOM      7  C   UNL     1      57.469 -17.542   3.440  1.00  0.00     0.093 A 
ATOM      8  C   UNL     1      57.711 -18.419   2.383  1.00  0.00     0.123 A 
ATOM      9  C   UNL     1      58.986 -18.488   1.819  1.00  0.00     0.094 A 
ATOM     10  C   UNL     1      60.027 -17.707   2.325  1.00  0.00     0.146 A 
ATOM     11  O   UNL     1      61.227 -17.811   1.767  1.00  0.00    -0.452 OA
ENDROOT
BRANCH   1  12
ATOM     12  C   UNL     1      63.567 -17.319   1.458  1.00  0.00     0.025 A 
ATOM     13  C   UNL     1      64.217 -18.566   1.432  1.00  0.00     0.016 A 
ATOM     14  C   UNL     1      65.433 -18.714   0.761  1.00  0.00     0.051 A 
ATOM     15  C   UNL     1      66.024 -17.619   0.118  1.00  0.00     0.157 A 
ATOM     16  C   UNL     1      64.175 -16.220   0.830  1.00  0.00     0.062 A 
ATOM     17  C   UNL     1      65.392 -16.365   0.156  1.00  0.00     0.158 A 
BRANCH  15  18
ATOM     18  O   UNL     1      67.238 -17.771  -0.552  1.00  0.00    -0.504 OA
ATOM     19  H   UNL     1      67.527 -18.665  -0.931  1.00  0.00     0.293 HD
ENDBRANCH  15  18
BRANCH  17  20
ATOM     20  O   UNL     1      65.958 -15.253  -0.467  1.00  0.00    -0.504 OA
ATOM     21  H   UNL     1      66.409 -15.315  -1.372  1.00  0.00     0.293 HD
ENDBRANCH  17  20
ENDBRANCH   1  12
BRANCH   2  22
ATOM     22  O   UNL     1      63.315 -15.643   3.808  1.00  0.00    -0.502 OA
ATOM     23  H   UNL     1      63.594 -15.713   4.779  1.00  0.00     0.293 HD
ENDBRANCH   2  22
BRANCH   6  24
ATOM     24  O   UNL     1      58.112 -15.810   4.939  1.00  0.00    -0.507 OA
ATOM     25  H   UNL     1      58.535 -15.753   5.853  1.00  0.00     0.293 HD
ENDBRANCH   6  24
BRANCH   8  26
ATOM     26  O   UNL     1      56.674 -19.210   1.895  1.00  0.00    -0.508 OA
ATOM     27  H   UNL     1      55.872 -19.447   2.469  1.00  0.00     0.293 HD
ENDBRANCH   8  26
TORSDOF 6
ENDMDL
MODEL 6
REMARK VINA RESULT:    -4.760      9.309     10.666
REMARK INTER + INTRA:          -6.016
REMARK INTER:                  -5.889
REMARK INTRA:                  -0.127
REMARK UNBOUND:                -0.282
REMARK SMILES O=c1c(O)c(-c2ccc(O)c(O)c2)oc2cc(O)cc(O)c12
REMARK SMILES IDX 5 1 3 2 2 3 1 4 22 5 20 6 19 7 17 8 16 9 15 10 14 11 6 12
REMARK SMILES IDX 7 13 8 14 9 15 13 16 11 17 10 18 12 20 4 22 21 24 18 26
REMARK H PARENT 10 19 12 21 4 23 21 25 18 27
REMARK Flexibility Score: inf
ROOT
ATOM      1  C   UNL     1      60.362  -7.160   4.397  1.00  0.00     0.180 A 
ATOM      2  C   UNL     1      59.864  -7.260   5.707  1.00  0.00     0.208 A 
ATOM      3  C   UNL     1      60.770  -7.301   6.779  1.00  0.00     0.238 A 
ATOM      4  O   UNL     1      60.316  -7.336   7.952  1.00  0.00    -0.285 OA
ATOM      5  C   UNL     1      62.163  -7.259   6.526  1.00  0.00     0.111 A 
ATOM      6  C   UNL     1      63.171  -7.336   7.533  1.00  0.00     0.134 A 
ATOM      7  C   UNL     1      64.514  -7.153   7.180  1.00  0.00     0.093 A 
ATOM      8  C   UNL     1      64.890  -6.962   5.851  1.00  0.00     0.123 A 
ATOM      9  C   UNL     1      63.917  -6.946   4.851  1.00  0.00     0.094 A 
ATOM     10  C   UNL     1      62.566  -7.089   5.176  1.00  0.00     0.146 A 
ATOM     11  O   UNL     1      61.671  -7.056   4.197  1.00  0.00    -0.452 OA
ENDROOT
BRANCH   1  12
ATOM     12  C   UNL     1      59.471  -7.135   3.214  1.00  0.00     0.025 A 
ATOM     13  C   UNL     1      59.407  -6.011   2.371  1.00  0.00     0.016 A 
ATOM     14  C   UNL     1      58.540  -5.999   1.275  1.00  0.00     0.051 A 
ATOM     15  C   UNL     1      57.718  -7.102   1.011  1.00  0.00     0.157 A 
ATOM     16  C   UNL     1      58.629  -8.229   2.957  1.00  0.00     0.062 A 
ATOM     17  C   UNL     1      57.761  -8.221   1.860  1.00  0.00     0.158 A 
BRANCH  15  18
ATOM     18  O   UNL     1      56.856  -7.088  -0.084  1.00  0.00    -0.504 OA
ATOM     19  H   UNL     1      57.011  -6.472  -0.874  1.00  0.00     0.293 HD
ENDBRANCH  15  18
BRANCH  17  20
ATOM     20  O   UNL     1      56.950  -9.332   1.629  1.00  0.00    -0.504 OA
ATOM     21  H   UNL     1      55.942  -9.292   1.722  1.00  0.00     0.293 HD
ENDBRANCH  17  20
ENDBRANCH   1  12
BRANCH   2  22
ATOM     22  O   UNL     1      58.485  -7.277   5.935  1.00  0.00    -0.502 OA
ATOM     23  H   UNL     1      58.004  -6.526   6.417  1.00  0.00     0.293 HD
ENDBRANCH   2  22
BRANCH   6  24
ATOM     24  O   UNL     1      62.912  -7.614   8.878  1.00  0.00    -0.507 OA
ATOM     25  H   UNL     1      62.368  -7.027   9.492  1.00  0.00     0.293 HD
ENDBRANCH   6  24
BRANCH   8  26
ATOM     26  O   UNL     1      66.237  -6.800   5.535  1.00  0.00    -0.508 OA
ATOM     27  H   UNL     1      66.757  -5.983   5.835  1.00  0.00     0.293 HD
ENDBRANCH   8  26
TORSDOF 6
ENDMDL
MODEL 7
REMARK VINA RESULT:    -4.727      9.237     10.756
REMARK INTER + INTRA:          -5.976
REMARK INTER:                  -5.767
REMARK INTRA:                  -0.209
REMARK UNBOUND:                -0.282
REMARK SMILES O=c1c(O)c(-c2ccc(O)c(O)c2)oc2cc(O)cc(O)c12
REMARK SMILES IDX 5 1 3 2 2 3 1 4 22 5 20 6 19 7 17 8 16 9 15 10 14 11 6 12
REMARK SMILES IDX 7 13 8 14 9 15 13 16 11 17 10 18 12 20 4 22 21 24 18 26
REMARK H PARENT 10 19 12 21 4 23 21 25 18 27
REMARK Flexibility Score: inf
ROOT
ATOM      1  C   UNL     1      60.756  -7.113   3.961  1.00  0.00     0.180 A 
ATOM      2  C   UNL     1      62.121  -7.048   3.632  1.00  0.00     0.208 A 
ATOM      3  C   UNL     1      63.071  -7.044   4.666  1.00  0.00     0.238 A 
ATOM      4  O   UNL     1      64.293  -7.040   4.364  1.00  0.00    -0.285 OA
ATOM      5  C   UNL     1      62.644  -7.086   6.016  1.00  0.00     0.111 A 
ATOM      6  C   UNL     1      63.518  -7.045   7.144  1.00  0.00     0.134 A 
ATOM      7  C   UNL     1      62.993  -7.226   8.429  1.00  0.00     0.093 A 
ATOM      8  C   UNL     1      61.623  -7.381   8.634  1.00  0.00     0.123 A 
ATOM      9  C   UNL     1      60.753  -7.362   7.542  1.00  0.00     0.094 A 
ATOM     10  C   UNL     1      61.249  -7.220   6.244  1.00  0.00     0.146 A 
ATOM     11  O   UNL     1      60.390  -7.219   5.233  1.00  0.00    -0.452 OA
ENDROOT
BRANCH   1  12
ATOM     12  C   UNL     1      59.695  -7.099   2.928  1.00  0.00     0.025 A 
ATOM     13  C   UNL     1      59.468  -5.963   2.129  1.00  0.00     0.016 A 
ATOM     14  C   UNL     1      58.445  -5.963   1.178  1.00  0.00     0.051 A 
ATOM     15  C   UNL     1      57.627  -7.089   1.018  1.00  0.00     0.157 A 
ATOM     16  C   UNL     1      58.857  -8.216   2.779  1.00  0.00     0.062 A 
ATOM     17  C   UNL     1      57.833  -8.220   1.826  1.00  0.00     0.158 A 
BRANCH  15  18
ATOM     18  O   UNL     1      56.608  -7.085   0.066  1.00  0.00    -0.504 OA
ATOM     19  H   UNL     1      56.498  -7.844  -0.597  1.00  0.00     0.293 HD
ENDBRANCH  15  18
BRANCH  17  20
ATOM     20  O   UNL     1      57.031  -9.353   1.697  1.00  0.00    -0.504 OA
ATOM     21  H   UNL     1      57.222 -10.074   1.012  1.00  0.00     0.293 HD
ENDBRANCH  17  20
ENDBRANCH   1  12
BRANCH   2  22
ATOM     22  O   UNL     1      62.522  -7.030   2.293  1.00  0.00    -0.502 OA
ATOM     23  H   UNL     1      62.911  -7.842   1.831  1.00  0.00     0.293 HD
ENDBRANCH   2  22
BRANCH   6  24
ATOM     24  O   UNL     1      64.892  -6.805   7.058  1.00  0.00    -0.507 OA
ATOM     25  H   UNL     1      65.305  -5.936   6.756  1.00  0.00     0.293 HD
ENDBRANCH   6  24
BRANCH   8  26
ATOM     26  O   UNL     1      61.135  -7.542   9.928  1.00  0.00    -0.508 OA
ATOM     27  H   UNL     1      61.709  -7.344  10.740  1.00  0.00     0.293 HD
ENDBRANCH   8  26
TORSDOF 6
ENDMDL
MODEL 8
REMARK VINA RESULT:    -4.678      7.542     11.003
REMARK INTER + INTRA:          -5.917
REMARK INTER:                  -5.624
REMARK INTRA:                  -0.293
REMARK UNBOUND:                -0.282
REMARK SMILES O=c1c(O)c(-c2ccc(O)c(O)c2)oc2cc(O)cc(O)c12
REMARK SMILES IDX 5 1 3 2 2 3 1 4 22 5 20 6 19 7 17 8 16 9 15 10 14 11 6 12
REMARK SMILES IDX 7 13 8 14 9 15 13 16 11 17 10 18 12 20 4 22 21 24 18 26
REMARK H PARENT 10 19 12 21 4 23 21 25 18 27
REMARK Flexibility Score: inf
ROOT
ATOM      1  C   UNL     1      67.271 -15.953  -3.643  1.00  0.00     0.180 A 
ATOM      2  C   UNL     1      65.996 -15.903  -3.052  1.00  0.00     0.208 A 
ATOM      3  C   UNL     1      65.760 -16.635  -1.878  1.00  0.00     0.238 A 
ATOM      4  O   UNL     1      64.633 -16.543  -1.325  1.00  0.00    -0.285 OA
ATOM      5  C   UNL     1      66.796 -17.422  -1.318  1.00  0.00     0.111 A 
ATOM      6  C   UNL     1      66.656 -18.236  -0.154  1.00  0.00     0.134 A 
ATOM      7  C   UNL     1      67.783 -18.868   0.385  1.00  0.00     0.093 A 
ATOM      8  C   UNL     1      69.029 -18.770  -0.232  1.00  0.00     0.123 A 
ATOM      9  C   UNL     1      69.164 -18.025  -1.405  1.00  0.00     0.094 A 
ATOM     10  C   UNL     1      68.067 -17.353  -1.947  1.00  0.00     0.146 A 
ATOM     11  O   UNL     1      68.240 -16.647  -3.057  1.00  0.00    -0.452 OA
ENDROOT
BRANCH   1  12
ATOM     12  C   UNL     1      67.590 -15.227  -4.894  1.00  0.00     0.025 A 
ATOM     13  C   UNL     1      67.642 -15.893  -6.132  1.00  0.00     0.016 A 
ATOM     14  C   UNL     1      67.969 -15.193  -7.296  1.00  0.00     0.051 A 
ATOM     15  C   UNL     1      68.261 -13.824  -7.240  1.00  0.00     0.157 A 
ATOM     16  C   UNL     1      67.904 -13.859  -4.841  1.00  0.00     0.062 A 
ATOM     17  C   UNL     1      68.231 -13.155  -6.004  1.00  0.00     0.158 A 
BRANCH  15  18
ATOM     18  O   UNL     1      68.585 -13.128  -8.404  1.00  0.00    -0.504 OA
ATOM     19  H   UNL     1      67.950 -13.087  -9.192  1.00  0.00     0.293 HD
ENDBRANCH  15  18
BRANCH  17  20
ATOM     20  O   UNL     1      68.524 -11.795  -5.914  1.00  0.00    -0.504 OA
ATOM     21  H   UNL     1      67.899 -11.138  -5.463  1.00  0.00     0.293 HD
ENDBRANCH  17  20
ENDBRANCH   1  12
BRANCH   2  22
ATOM     22  O   UNL     1      64.995 -15.102  -3.609  1.00  0.00    -0.502 OA
ATOM     23  H   UNL     1      64.807 -14.162  -3.283  1.00  0.00     0.293 HD
ENDBRANCH   2  22
BRANCH   6  24
ATOM     24  O   UNL     1      65.438 -18.475   0.489  1.00  0.00    -0.507 OA
ATOM     25  H   UNL     1      65.173 -19.353   0.908  1.00  0.00     0.293 HD
ENDBRANCH   6  24
BRANCH   8  26
ATOM     26  O   UNL     1      70.125 -19.426   0.324  1.00  0.00    -0.508 OA
ATOM     27  H   UNL     1      70.165 -19.646   1.312  1.00  0.00     0.293 HD
ENDBRANCH   8  26
TORSDOF 6
ENDMDL
MODEL 9
REMARK VINA RESULT:    -4.676      1.857      6.992
REMARK INTER + INTRA:          -5.915
REMARK INTER:                  -5.597
REMARK INTRA:                  -0.318
REMARK UNBOUND:                -0.282
REMARK SMILES O=c1c(O)c(-c2ccc(O)c(O)c2)oc2cc(O)cc(O)c12
REMARK SMILES IDX 5 1 3 2 2 3 1 4 22 5 20 6 19 7 17 8 16 9 15 10 14 11 6 12
REMARK SMILES IDX 7 13 8 14 9 15 13 16 11 17 10 18 12 20 4 22 21 24 18 26
REMARK H PARENT 10 19 12 21 4 23 21 25 18 27
REMARK Flexibility Score: inf
ROOT
ATOM      1  C   UNL     1      59.410 -16.748   3.867  1.00  0.00     0.180 A 
ATOM      2  C   UNL     1      58.068 -16.530   3.512  1.00  0.00     0.208 A 
ATOM      3  C   UNL     1      57.076 -16.638   4.499  1.00  0.00     0.238 A 
ATOM      4  O   UNL     1      55.883 -16.388   4.186  1.00  0.00    -0.285 OA
ATOM      5  C   UNL     1      57.436 -16.980   5.825  1.00  0.00     0.111 A 
ATOM      6  C   UNL     1      56.509 -17.157   6.896  1.00  0.00     0.134 A 
ATOM      7  C   UNL     1      56.988 -17.366   8.196  1.00  0.00     0.093 A 
ATOM      8  C   UNL     1      58.354 -17.469   8.452  1.00  0.00     0.123 A 
ATOM      9  C   UNL     1      59.267 -17.358   7.402  1.00  0.00     0.094 A 
ATOM     10  C   UNL     1      58.822 -17.113   6.101  1.00  0.00     0.146 A 
ATOM     11  O   UNL     1      59.723 -17.002   5.133  1.00  0.00    -0.452 OA
ENDROOT
BRANCH   1  12
ATOM     12  C   UNL     1      60.510 -16.675   2.878  1.00  0.00     0.025 A 
ATOM     13  C   UNL     1      60.810 -17.762   2.037  1.00  0.00     0.016 A 
ATOM     14  C   UNL     1      61.868 -17.680   1.128  1.00  0.00     0.051 A 
ATOM     15  C   UNL     1      62.648 -16.519   1.053  1.00  0.00     0.157 A 
ATOM     16  C   UNL     1      61.309 -15.522   2.814  1.00  0.00     0.062 A 
ATOM     17  C   UNL     1      62.368 -15.436   1.904  1.00  0.00     0.158 A 
BRANCH  15  18
ATOM     18  O   UNL     1      63.702 -16.440   0.144  1.00  0.00    -0.504 OA
ATOM     19  H   UNL     1      64.665 -16.557   0.436  1.00  0.00     0.293 HD
ENDBRANCH  15  18
BRANCH  17  20
ATOM     20  O   UNL     1      63.131 -14.270   1.860  1.00  0.00    -0.504 OA
ATOM     21  H   UNL     1      64.026 -14.193   2.328  1.00  0.00     0.293 HD
ENDBRANCH  17  20
ENDBRANCH   1  12
BRANCH   2  22
ATOM     22  O   UNL     1      57.737 -16.171   2.202  1.00  0.00    -0.502 OA
ATOM     23  H   UNL     1      57.520 -15.217   1.938  1.00  0.00     0.293 HD
ENDBRANCH   2  22
BRANCH   6  24
ATOM     24  O   UNL     1      55.121 -17.164   6.734  1.00  0.00    -0.507 OA
ATOM     25  H   UNL     1      54.643 -16.993   5.862  1.00  0.00     0.293 HD
ENDBRANCH   6  24
BRANCH   8  26
ATOM     26  O   UNL     1      58.793 -17.694   9.755  1.00  0.00    -0.508 OA
ATOM     27  H   UNL     1      59.717 -18.066   9.946  1.00  0.00     0.293 HD
ENDBRANCH   8  26
TORSDOF 6
ENDMDL
