MODEL 1
REMARK VINA RESULT:     1.618      0.000      0.000
REMARK INTER + INTRA:           2.852
REMARK INTER:                   3.510
REMARK INTRA:                  -0.659
REMARK UNBOUND:                -0.659
REMARK SMILES CCCCCCCCCCCCCCCCCCCCCC(=O)[O-]
REMARK SMILES IDX 12 1 11 2 10 3 9 4 8 5 7 6 6 7 5 8 4 9 3 10 2 11 1 12 13 13
REMARK SMILES IDX 14 14 15 15 16 16 17 17 18 18 19 19 20 20 21 21 22 22 23 23
REMARK SMILES IDX 24 24
REMARK H PARENT
REMARK Flexibility Score: inf
ROOT
ATOM      1  C   UNL     1       2.618   9.118   0.272  1.00  0.00     0.000 C 
ENDROOT
BRANCH   1   2
ATOM      2  C   UNL     1       3.389   9.859  -0.831  1.00  0.00     0.000 C 
BRANCH   2   3
ATOM      3  C   UNL     1       4.752   9.215  -1.145  1.00  0.00     0.000 C 
BRANCH   3   4
ATOM      4  C   UNL     1       5.407   9.700  -2.453  1.00  0.00    -0.000 C 
BRANCH   4   5
ATOM      5  C   UNL     1       4.725   9.131  -3.710  1.00  0.00    -0.000 C 
BRANCH   5   6
ATOM      6  C   UNL     1       5.588   9.290  -4.972  1.00  0.00    -0.000 C 
BRANCH   6   7
ATOM      7  C   UNL     1       5.040   8.485  -6.163  1.00  0.00    -0.000 C 
BRANCH   7   8
ATOM      8  C   UNL     1       5.364   9.152  -7.516  1.00  0.00    -0.000 C 
BRANCH   8   9
ATOM      9  C   UNL     1       5.579   8.150  -8.662  1.00  0.00    -0.000 C 
BRANCH   9  10
ATOM     10  C   UNL     1       5.921   6.737  -8.166  1.00  0.00    -0.000 C 
BRANCH  10  11
ATOM     11  C   UNL     1       7.423   6.558  -7.888  1.00  0.00    -0.003 C 
ATOM     12  C   UNL     1       7.713   6.201  -6.430  1.00  0.00     0.004 C 
ENDBRANCH  10  11
ENDBRANCH   9  10
ENDBRANCH   8   9
ENDBRANCH   7   8
ENDBRANCH   6   7
ENDBRANCH   5   6
ENDBRANCH   4   5
ENDBRANCH   3   4
ENDBRANCH   2   3
ENDBRANCH   1   2
BRANCH   1  13
ATOM     13  C   UNL     1       2.141  10.064   1.397  1.00  0.00     0.000 C 
BRANCH  13  14
ATOM     14  C   UNL     1       0.672   9.851   1.810  1.00  0.00     0.000 C 
BRANCH  14  15
ATOM     15  C   UNL     1       0.373  10.081   3.303  1.00  0.00     0.000 C 
BRANCH  15  16
ATOM     16  C   UNL     1      -1.045   9.678   3.754  1.00  0.00     0.000 C 
BRANCH  16  17
ATOM     17  C   UNL     1      -1.430  10.124   5.180  1.00  0.00     0.000 C 
BRANCH  17  18
ATOM     18  C   UNL     1      -1.595   8.983   6.201  1.00  0.00     0.000 C 
BRANCH  18  19
ATOM     19  C   UNL     1      -2.172   9.463   7.544  1.00  0.00     0.000 C 
BRANCH  19  20
ATOM     20  C   UNL     1      -3.673   9.806   7.459  1.00  0.00     0.006 C 
BRANCH  20  21
ATOM     21  C   UNL     1      -4.384   9.888   8.821  1.00  0.00     0.053 C 
BRANCH  21  22
ATOM     22  C   UNL     1      -5.870  10.004   8.674  1.00  0.00     0.041 C 
ATOM     23  O   UNL     1      -6.601  10.120   9.691  1.00  0.00    -0.550 OA
ATOM     24  O   UNL     1      -6.446  10.011   7.408  1.00  0.00    -0.550 OA
ENDBRANCH  21  22
ENDBRANCH  20  21
ENDBRANCH  19  20
ENDBRANCH  18  19
ENDBRANCH  17  18
ENDBRANCH  16  17
ENDBRANCH  15  16
ENDBRANCH  14  15
ENDBRANCH  13  14
ENDBRANCH   1  13
TORSDOF 20
ENDMDL
MODEL 2
REMARK VINA RESULT:     1.854     19.325     20.569
REMARK INTER + INTRA:           3.362
REMARK INTER:                   4.444
REMARK INTRA:                  -1.081
REMARK UNBOUND:                -0.659
REMARK SMILES CCCCCCCCCCCCCCCCCCCCCC(=O)[O-]
REMARK SMILES IDX 12 1 11 2 10 3 9 4 8 5 7 6 6 7 5 8 4 9 3 10 2 11 1 12 13 13
REMARK SMILES IDX 14 14 15 15 16 16 17 17 18 18 19 19 20 20 21 21 22 22 23 23
REMARK SMILES IDX 24 24
REMARK H PARENT
REMARK Flexibility Score: inf
ROOT
ATOM      1  C   UNL     1       4.753  -5.951   4.947  1.00  0.00     0.000 C 
ENDROOT
BRANCH   1   2
ATOM      2  C   UNL     1       6.078  -5.804   5.712  1.00  0.00     0.000 C 
BRANCH   2   3
ATOM      3  C   UNL     1       6.030  -6.425   7.120  1.00  0.00     0.000 C 
BRANCH   3   4
ATOM      4  C   UNL     1       7.378  -6.433   7.867  1.00  0.00    -0.000 C 
BRANCH   4   5
ATOM      5  C   UNL     1       7.295  -7.114   9.244  1.00  0.00    -0.000 C 
BRANCH   5   6
ATOM      6  C   UNL     1       8.676  -7.517   9.786  1.00  0.00    -0.000 C 
BRANCH   6   7
ATOM      7  C   UNL     1       8.806  -9.037   9.990  1.00  0.00    -0.000 C 
BRANCH   7   8
ATOM      8  C   UNL     1      10.102  -9.599   9.371  1.00  0.00    -0.000 C 
BRANCH   8   9
ATOM      9  C   UNL     1       9.982  -9.911   7.869  1.00  0.00    -0.000 C 
BRANCH   9  10
ATOM     10  C   UNL     1       8.543  -9.796   7.347  1.00  0.00    -0.000 C 
BRANCH  10  11
ATOM     11  C   UNL     1       8.432 -10.116   5.847  1.00  0.00    -0.003 C 
ATOM     12  C   UNL     1       9.748  -9.902   5.101  1.00  0.00     0.004 C 
ENDBRANCH  10  11
ENDBRANCH   9  10
ENDBRANCH   8   9
ENDBRANCH   7   8
ENDBRANCH   6   7
ENDBRANCH   5   6
ENDBRANCH   4   5
ENDBRANCH   3   4
ENDBRANCH   2   3
ENDBRANCH   1   2
BRANCH   1  13
ATOM     13  C   UNL     1       4.217  -7.400   4.970  1.00  0.00     0.000 C 
BRANCH  13  14
ATOM     14  C   UNL     1       5.307  -8.464   5.205  1.00  0.00     0.000 C 
BRANCH  14  15
ATOM     15  C   UNL     1       4.965  -9.525   6.266  1.00  0.00     0.000 C 
BRANCH  15  16
ATOM     16  C   UNL     1       3.627  -9.307   7.001  1.00  0.00     0.000 C 
BRANCH  16  17
ATOM     17  C   UNL     1       3.569  -9.871   8.436  1.00  0.00     0.000 C 
BRANCH  17  18
ATOM     18  C   UNL     1       2.544  -9.193   9.364  1.00  0.00     0.000 C 
BRANCH  18  19
ATOM     19  C   UNL     1       1.382 -10.125   9.750  1.00  0.00     0.000 C 
BRANCH  19  20
ATOM     20  C   UNL     1       0.000  -9.473   9.541  1.00  0.00     0.006 C 
BRANCH  20  21
ATOM     21  C   UNL     1      -0.797 -10.038   8.353  1.00  0.00     0.053 C 
BRANCH  21  22
ATOM     22  C   UNL     1      -2.276  -9.950   8.574  1.00  0.00     0.041 C 
ATOM     23  O   UNL     1      -2.731  -9.692   9.719  1.00  0.00    -0.550 OA
ATOM     24  O   UNL     1      -3.151 -10.125   7.508  1.00  0.00    -0.550 OA
ENDBRANCH  21  22
ENDBRANCH  20  21
ENDBRANCH  19  20
ENDBRANCH  18  19
ENDBRANCH  17  18
ENDBRANCH  16  17
ENDBRANCH  15  16
ENDBRANCH  14  15
ENDBRANCH  13  14
ENDBRANCH   1  13
TORSDOF 20
ENDMDL
MODEL 3
REMARK VINA RESULT:     2.708     18.031     19.414
REMARK INTER + INTRA:           5.215
REMARK INTER:                   6.547
REMARK INTRA:                  -1.332
REMARK UNBOUND:                -0.659
REMARK SMILES CCCCCCCCCCCCCCCCCCCCCC(=O)[O-]
REMARK SMILES IDX 12 1 11 2 10 3 9 4 8 5 7 6 6 7 5 8 4 9 3 10 2 11 1 12 13 13
REMARK SMILES IDX 14 14 15 15 16 16 17 17 18 18 19 19 20 20 21 21 22 22 23 23
REMARK SMILES IDX 24 24
REMARK H PARENT
REMARK Flexibility Score: inf
ROOT
ATOM      1  C   UNL     1       7.680  -7.657   9.761  1.00  0.00     0.000 C 
ENDROOT
BRANCH   1   2
ATOM      2  C   UNL     1       6.761  -7.415   8.553  1.00  0.00     0.000 C 
BRANCH   2   3
ATOM      3  C   UNL     1       7.303  -6.341   7.592  1.00  0.00     0.000 C 
BRANCH   3   4
ATOM      4  C   UNL     1       6.278  -5.264   7.186  1.00  0.00    -0.000 C 
BRANCH   4   5
ATOM      5  C   UNL     1       5.178  -5.806   6.256  1.00  0.00    -0.000 C 
BRANCH   5   6
ATOM      6  C   UNL     1       5.335  -5.314   4.808  1.00  0.00    -0.000 C 
BRANCH   6   7
ATOM      7  C   UNL     1       5.904  -3.886   4.732  1.00  0.00    -0.000 C 
BRANCH   7   8
ATOM      8  C   UNL     1       4.907  -2.896   4.095  1.00  0.00    -0.000 C 
BRANCH   8   9
ATOM      9  C   UNL     1       3.938  -3.552   3.097  1.00  0.00    -0.000 C 
BRANCH   9  10
ATOM     10  C   UNL     1       2.472  -3.169   3.347  1.00  0.00    -0.000 C 
BRANCH  10  11
ATOM     11  C   UNL     1       1.597  -3.329   2.092  1.00  0.00    -0.003 C 
ATOM     12  C   UNL     1       2.037  -2.414   0.949  1.00  0.00     0.004 C 
ENDBRANCH  10  11
ENDBRANCH   9  10
ENDBRANCH   8   9
ENDBRANCH   7   8
ENDBRANCH   6   7
ENDBRANCH   5   6
ENDBRANCH   4   5
ENDBRANCH   3   4
ENDBRANCH   2   3
ENDBRANCH   1   2
BRANCH   1  13
ATOM     13  C   UNL     1       9.119  -8.034   9.341  1.00  0.00     0.000 C 
BRANCH  13  14
ATOM     14  C   UNL     1       9.355  -9.552   9.224  1.00  0.00     0.000 C 
BRANCH  14  15
ATOM     15  C   UNL     1       9.563 -10.072   7.790  1.00  0.00     0.000 C 
BRANCH  15  16
ATOM     16  C   UNL     1       8.802  -9.295   6.697  1.00  0.00     0.000 C 
BRANCH  16  17
ATOM     17  C   UNL     1       7.456  -9.917   6.270  1.00  0.00     0.000 C 
BRANCH  17  18
ATOM     18  C   UNL     1       6.572  -9.019   5.385  1.00  0.00     0.000 C 
BRANCH  18  19
ATOM     19  C   UNL     1       5.085  -9.074   5.777  1.00  0.00     0.000 C 
BRANCH  19  20
ATOM     20  C   UNL     1       4.794 -10.124   6.868  1.00  0.00     0.006 C 
BRANCH  20  21
ATOM     21  C   UNL     1       4.856  -9.581   8.306  1.00  0.00     0.053 C 
BRANCH  21  22
ATOM     22  C   UNL     1       3.494  -9.292   8.857  1.00  0.00     0.041 C 
ATOM     23  O   UNL     1       3.305  -8.282   9.584  1.00  0.00    -0.550 OA
ATOM     24  O   UNL     1       2.425 -10.124   8.544  1.00  0.00    -0.550 OA
ENDBRANCH  21  22
ENDBRANCH  20  21
ENDBRANCH  19  20
ENDBRANCH  18  19
ENDBRANCH  17  18
ENDBRANCH  16  17
ENDBRANCH  15  16
ENDBRANCH  14  15
ENDBRANCH  13  14
ENDBRANCH   1  13
TORSDOF 20
ENDMDL
MODEL 4
REMARK VINA RESULT:     2.808     17.872     20.040
REMARK INTER + INTRA:           5.433
REMARK INTER:                   5.404
REMARK INTRA:                   0.030
REMARK UNBOUND:                -0.659
REMARK SMILES CCCCCCCCCCCCCCCCCCCCCC(=O)[O-]
REMARK SMILES IDX 12 1 11 2 10 3 9 4 8 5 7 6 6 7 5 8 4 9 3 10 2 11 1 12 13 13
REMARK SMILES IDX 14 14 15 15 16 16 17 17 18 18 19 19 20 20 21 21 22 22 23 23
REMARK SMILES IDX 24 24
REMARK H PARENT
REMARK Flexibility Score: inf
ROOT
ATOM      1  C   UNL     1       7.196  -9.255   8.581  1.00  0.00     0.000 C 
ENDROOT
BRANCH   1   2
ATOM      2  C   UNL     1       7.775 -10.087   7.425  1.00  0.00     0.000 C 
BRANCH   2   3
ATOM      3  C   UNL     1       8.143  -9.233   6.197  1.00  0.00     0.000 C 
BRANCH   3   4
ATOM      4  C   UNL     1       7.174  -9.367   5.007  1.00  0.00    -0.000 C 
BRANCH   4   5
ATOM      5  C   UNL     1       5.818  -9.976   5.404  1.00  0.00    -0.000 C 
BRANCH   5   6
ATOM      6  C   UNL     1       4.725  -8.912   5.591  1.00  0.00    -0.000 C 
BRANCH   6   7
ATOM      7  C   UNL     1       3.444  -9.489   6.217  1.00  0.00    -0.000 C 
BRANCH   7   8
ATOM      8  C   UNL     1       3.688 -10.044   7.636  1.00  0.00    -0.000 C 
BRANCH   8   9
ATOM      9  C   UNL     1       3.790  -8.952   8.716  1.00  0.00    -0.000 C 
BRANCH   9  10
ATOM     10  C   UNL     1       3.390  -9.453  10.112  1.00  0.00    -0.000 C 
BRANCH  10  11
ATOM     11  C   UNL     1       2.006 -10.124  10.124  1.00  0.00    -0.003 C 
ATOM     12  C   UNL     1       1.250  -9.937   8.809  1.00  0.00     0.004 C 
ENDBRANCH  10  11
ENDBRANCH   9  10
ENDBRANCH   8   9
ENDBRANCH   7   8
ENDBRANCH   6   7
ENDBRANCH   5   6
ENDBRANCH   4   5
ENDBRANCH   3   4
ENDBRANCH   2   3
ENDBRANCH   1   2
BRANCH   1  13
ATOM     13  C   UNL     1       8.171  -8.157   9.064  1.00  0.00     0.000 C 
BRANCH  13  14
ATOM     14  C   UNL     1       8.064  -6.839   8.273  1.00  0.00     0.000 C 
BRANCH  14  15
ATOM     15  C   UNL     1       6.909  -6.778   7.257  1.00  0.00     0.000 C 
BRANCH  15  16
ATOM     16  C   UNL     1       5.927  -5.605   7.453  1.00  0.00     0.000 C 
BRANCH  16  17
ATOM     17  C   UNL     1       6.022  -4.489   6.392  1.00  0.00     0.000 C 
BRANCH  17  18
ATOM     18  C   UNL     1       5.423  -4.840   5.018  1.00  0.00     0.000 C 
BRANCH  18  19
ATOM     19  C   UNL     1       4.894  -3.607   4.264  1.00  0.00     0.000 C 
BRANCH  19  20
ATOM     20  C   UNL     1       3.858  -3.969   3.182  1.00  0.00     0.006 C 
BRANCH  20  21
ATOM     21  C   UNL     1       2.606  -3.075   3.176  1.00  0.00     0.053 C 
BRANCH  21  22
ATOM     22  C   UNL     1       2.032  -2.918   1.802  1.00  0.00     0.041 C 
ATOM     23  O   UNL     1       0.798  -3.068   1.608  1.00  0.00    -0.550 OA
ATOM     24  O   UNL     1       2.859  -2.578   0.737  1.00  0.00    -0.550 OA
ENDBRANCH  21  22
ENDBRANCH  20  21
ENDBRANCH  19  20
ENDBRANCH  18  19
ENDBRANCH  17  18
ENDBRANCH  16  17
ENDBRANCH  15  16
ENDBRANCH  14  15
ENDBRANCH  13  14
ENDBRANCH   1  13
TORSDOF 20
ENDMDL
MODEL 5
REMARK VINA RESULT:     2.863     18.246     19.777
REMARK INTER + INTRA:           5.551
REMARK INTER:                   5.823
REMARK INTRA:                  -0.272
REMARK UNBOUND:                -0.659
REMARK SMILES CCCCCCCCCCCCCCCCCCCCCC(=O)[O-]
REMARK SMILES IDX 12 1 11 2 10 3 9 4 8 5 7 6 6 7 5 8 4 9 3 10 2 11 1 12 13 13
REMARK SMILES IDX 14 14 15 15 16 16 17 17 18 18 19 19 20 20 21 21 22 22 23 23
REMARK SMILES IDX 24 24
REMARK H PARENT
REMARK Flexibility Score: inf
ROOT
ATOM      1  C   UNL     1       4.043  -9.636   6.291  1.00  0.00     0.000 C 
ENDROOT
BRANCH   1   2
ATOM      2  C   UNL     1       4.324  -8.226   5.749  1.00  0.00     0.000 C 
BRANCH   2   3
ATOM      3  C   UNL     1       5.633  -7.624   6.295  1.00  0.00     0.000 C 
BRANCH   3   4
ATOM      4  C   UNL     1       5.545  -6.134   6.678  1.00  0.00    -0.000 C 
BRANCH   4   5
ATOM      5  C   UNL     1       6.070  -5.200   5.574  1.00  0.00    -0.000 C 
BRANCH   5   6
ATOM      6  C   UNL     1       5.200  -3.945   5.399  1.00  0.00    -0.000 C 
BRANCH   6   7
ATOM      7  C   UNL     1       5.365  -3.305   4.009  1.00  0.00    -0.000 C 
BRANCH   7   8
ATOM      8  C   UNL     1       4.235  -3.713   3.042  1.00  0.00    -0.000 C 
BRANCH   8   9
ATOM      9  C   UNL     1       2.929  -2.928   3.254  1.00  0.00    -0.000 C 
BRANCH   9  10
ATOM     10  C   UNL     1       1.764  -3.466   2.410  1.00  0.00    -0.000 C 
BRANCH  10  11
ATOM     11  C   UNL     1       0.842  -2.348   1.894  1.00  0.00    -0.003 C 
ATOM     12  C   UNL     1       1.176  -0.985   2.500  1.00  0.00     0.004 C 
ENDBRANCH  10  11
ENDBRANCH   9  10
ENDBRANCH   8   9
ENDBRANCH   7   8
ENDBRANCH   6   7
ENDBRANCH   5   6
ENDBRANCH   4   5
ENDBRANCH   3   4
ENDBRANCH   2   3
ENDBRANCH   1   2
BRANCH   1  13
ATOM     13  C   UNL     1       5.140 -10.124   7.264  1.00  0.00     0.000 C 
BRANCH  13  14
ATOM     14  C   UNL     1       4.760  -9.987   8.751  1.00  0.00     0.000 C 
BRANCH  14  15
ATOM     15  C   UNL     1       4.460  -8.550   9.217  1.00  0.00     0.000 C 
BRANCH  15  16
ATOM     16  C   UNL     1       5.555  -7.905  10.091  1.00  0.00     0.000 C 
BRANCH  16  17
ATOM     17  C   UNL     1       6.943  -8.573  10.000  1.00  0.00     0.000 C 
BRANCH  17  18
ATOM     18  C   UNL     1       8.083  -7.652   9.530  1.00  0.00     0.000 C 
BRANCH  18  19
ATOM     19  C   UNL     1       9.474  -8.166   9.942  1.00  0.00     0.000 C 
BRANCH  19  20
ATOM     20  C   UNL     1       9.831  -9.513   9.282  1.00  0.00     0.006 C 
BRANCH  20  21
ATOM     21  C   UNL     1      10.109  -9.427   7.771  1.00  0.00     0.053 C 
BRANCH  21  22
ATOM     22  C   UNL     1       8.867  -9.628   6.958  1.00  0.00     0.041 C 
ATOM     23  O   UNL     1       7.816 -10.057   7.502  1.00  0.00    -0.550 OA
ATOM     24  O   UNL     1       8.863  -9.315   5.604  1.00  0.00    -0.550 OA
ENDBRANCH  21  22
ENDBRANCH  20  21
ENDBRANCH  19  20
ENDBRANCH  18  19
ENDBRANCH  17  18
ENDBRANCH  16  17
ENDBRANCH  15  16
ENDBRANCH  14  15
ENDBRANCH  13  14
ENDBRANCH   1  13
TORSDOF 20
ENDMDL
MODEL 6
REMARK VINA RESULT:     3.205     18.029     19.627
REMARK INTER + INTRA:           6.293
REMARK INTER:                   5.735
REMARK INTRA:                   0.558
REMARK UNBOUND:                -0.659
REMARK SMILES CCCCCCCCCCCCCCCCCCCCCC(=O)[O-]
REMARK SMILES IDX 12 1 11 2 10 3 9 4 8 5 7 6 6 7 5 8 4 9 3 10 2 11 1 12 13 13
REMARK SMILES IDX 14 14 15 15 16 16 17 17 18 18 19 19 20 20 21 21 22 22 23 23
REMARK SMILES IDX 24 24
REMARK H PARENT
REMARK Flexibility Score: inf
ROOT
ATOM      1  C   UNL     1       4.873  -8.791   8.731  1.00  0.00     0.000 C 
ENDROOT
BRANCH   1   2
ATOM      2  C   UNL     1       4.283 -10.051   8.077  1.00  0.00     0.000 C 
BRANCH   2   3
ATOM      3  C   UNL     1       3.277  -9.730   6.956  1.00  0.00     0.000 C 
BRANCH   3   4
ATOM      4  C   UNL     1       3.789 -10.016   5.531  1.00  0.00    -0.000 C 
BRANCH   4   5
ATOM      5  C   UNL     1       5.322 -10.121   5.456  1.00  0.00    -0.000 C 
BRANCH   5   6
ATOM      6  C   UNL     1       6.020  -8.786   5.758  1.00  0.00    -0.000 C 
BRANCH   6   7
ATOM      7  C   UNL     1       7.459  -8.739   5.214  1.00  0.00    -0.000 C 
BRANCH   7   8
ATOM      8  C   UNL     1       8.135 -10.125   5.236  1.00  0.00    -0.000 C 
BRANCH   8   9
ATOM      9  C   UNL     1       9.546 -10.113   5.848  1.00  0.00    -0.000 C 
BRANCH   9  10
ATOM     10  C   UNL     1       9.656  -9.203   7.081  1.00  0.00    -0.000 C 
BRANCH  10  11
ATOM     11  C   UNL     1       9.540  -9.983   8.402  1.00  0.00    -0.003 C 
ATOM     12  C   UNL     1       9.893  -9.130   9.620  1.00  0.00     0.004 C 
ENDBRANCH  10  11
ENDBRANCH   9  10
ENDBRANCH   8   9
ENDBRANCH   7   8
ENDBRANCH   6   7
ENDBRANCH   5   6
ENDBRANCH   4   5
ENDBRANCH   3   4
ENDBRANCH   2   3
ENDBRANCH   1   2
BRANCH   1  13
ATOM     13  C   UNL     1       6.305  -8.485   8.238  1.00  0.00     0.000 C 
BRANCH  13  14
ATOM     14  C   UNL     1       6.959  -7.278   8.938  1.00  0.00     0.000 C 
BRANCH  14  15
ATOM     15  C   UNL     1       6.669  -5.912   8.290  1.00  0.00     0.000 C 
BRANCH  15  16
ATOM     16  C   UNL     1       6.479  -5.941   6.760  1.00  0.00     0.000 C 
BRANCH  16  17
ATOM     17  C   UNL     1       5.675  -4.761   6.177  1.00  0.00     0.000 C 
BRANCH  17  18
ATOM     18  C   UNL     1       5.859  -4.526   4.667  1.00  0.00     0.000 C 
BRANCH  18  19
ATOM     19  C   UNL     1       4.983  -3.380   4.131  1.00  0.00     0.000 C 
BRANCH  19  20
ATOM     20  C   UNL     1       3.673  -3.880   3.489  1.00  0.00     0.006 C 
BRANCH  20  21
ATOM     21  C   UNL     1       2.625  -2.781   3.244  1.00  0.00     0.053 C 
BRANCH  21  22
ATOM     22  C   UNL     1       2.014  -2.880   1.881  1.00  0.00     0.041 C 
ATOM     23  O   UNL     1       0.882  -3.408   1.729  1.00  0.00    -0.550 OA
ATOM     24  O   UNL     1       2.684  -2.361   0.778  1.00  0.00    -0.550 OA
ENDBRANCH  21  22
ENDBRANCH  20  21
ENDBRANCH  19  20
ENDBRANCH  18  19
ENDBRANCH  17  18
ENDBRANCH  16  17
ENDBRANCH  15  16
ENDBRANCH  14  15
ENDBRANCH  13  14
ENDBRANCH   1  13
TORSDOF 20
ENDMDL
MODEL 7
REMARK VINA RESULT:     3.341     18.500     20.192
REMARK INTER + INTRA:           6.589
REMARK INTER:                   5.177
REMARK INTRA:                   1.412
REMARK UNBOUND:                -0.659
REMARK SMILES CCCCCCCCCCCCCCCCCCCCCC(=O)[O-]
REMARK SMILES IDX 12 1 11 2 10 3 9 4 8 5 7 6 6 7 5 8 4 9 3 10 2 11 1 12 13 13
REMARK SMILES IDX 14 14 15 15 16 16 17 17 18 18 19 19 20 20 21 21 22 22 23 23
REMARK SMILES IDX 24 24
REMARK H PARENT
REMARK Flexibility Score: inf
ROOT
ATOM      1  C   UNL     1       6.592  -9.166   9.506  1.00  0.00     0.000 C 
ENDROOT
BRANCH   1   2
ATOM      2  C   UNL     1       7.267  -7.931  10.123  1.00  0.00     0.000 C 
BRANCH   2   3
ATOM      3  C   UNL     1       6.944  -6.630   9.366  1.00  0.00     0.000 C 
BRANCH   3   4
ATOM      4  C   UNL     1       6.301  -6.835   7.980  1.00  0.00    -0.000 C 
BRANCH   4   5
ATOM      5  C   UNL     1       6.129  -5.520   7.200  1.00  0.00    -0.000 C 
BRANCH   5   6
ATOM      6  C   UNL     1       5.873  -5.752   5.702  1.00  0.00    -0.000 C 
BRANCH   6   7
ATOM      7  C   UNL     1       4.919  -4.705   5.101  1.00  0.00    -0.000 C 
BRANCH   7   8
ATOM      8  C   UNL     1       5.512  -4.028   3.848  1.00  0.00    -0.000 C 
BRANCH   8   9
ATOM      9  C   UNL     1       4.489  -3.198   3.053  1.00  0.00    -0.000 C 
BRANCH   9  10
ATOM     10  C   UNL     1       3.041  -3.445   3.501  1.00  0.00    -0.000 C 
BRANCH  10  11
ATOM     11  C   UNL     1       2.023  -3.184   2.378  1.00  0.00    -0.003 C 
ATOM     12  C   UNL     1       2.652  -2.507   1.160  1.00  0.00     0.004 C 
ENDBRANCH  10  11
ENDBRANCH   9  10
ENDBRANCH   8   9
ENDBRANCH   7   8
ENDBRANCH   6   7
ENDBRANCH   5   6
ENDBRANCH   4   5
ENDBRANCH   3   4
ENDBRANCH   2   3
ENDBRANCH   1   2
BRANCH   1  13
ATOM     13  C   UNL     1       5.065  -8.985   9.345  1.00  0.00     0.000 C 
BRANCH  13  14
ATOM     14  C   UNL     1       4.504  -9.578   8.038  1.00  0.00     0.000 C 
BRANCH  14  15
ATOM     15  C   UNL     1       3.904  -8.550   7.060  1.00  0.00     0.000 C 
BRANCH  15  16
ATOM     16  C   UNL     1       4.034  -8.916   5.568  1.00  0.00     0.000 C 
BRANCH  16  17
ATOM     17  C   UNL     1       5.372  -9.571   5.169  1.00  0.00     0.000 C 
BRANCH  17  18
ATOM     18  C   UNL     1       6.204 -10.125   6.339  1.00  0.00     0.000 C 
BRANCH  18  19
ATOM     19  C   UNL     1       7.509  -9.341   6.567  1.00  0.00     0.000 C 
BRANCH  19  20
ATOM     20  C   UNL     1       8.698  -9.922   5.775  1.00  0.00     0.006 C 
BRANCH  20  21
ATOM     21  C   UNL     1      10.017  -9.987   6.566  1.00  0.00     0.053 C 
BRANCH  21  22
ATOM     22  C   UNL     1       9.902  -9.332   7.907  1.00  0.00     0.041 C 
ATOM     23  O   UNL     1       9.800 -10.032   8.948  1.00  0.00    -0.550 OA
ATOM     24  O   UNL     1       9.935  -7.946   8.010  1.00  0.00    -0.550 OA
ENDBRANCH  21  22
ENDBRANCH  20  21
ENDBRANCH  19  20
ENDBRANCH  18  19
ENDBRANCH  17  18
ENDBRANCH  16  17
ENDBRANCH  15  16
ENDBRANCH  14  15
ENDBRANCH  13  14
ENDBRANCH   1  13
TORSDOF 20
ENDMDL
MODEL 8
REMARK VINA RESULT:     3.549     17.463     19.620
REMARK INTER + INTRA:           7.039
REMARK INTER:                   7.436
REMARK INTRA:                  -0.397
REMARK UNBOUND:                -0.659
REMARK SMILES CCCCCCCCCCCCCCCCCCCCCC(=O)[O-]
REMARK SMILES IDX 12 1 11 2 10 3 9 4 8 5 7 6 6 7 5 8 4 9 3 10 2 11 1 12 13 13
REMARK SMILES IDX 14 14 15 15 16 16 17 17 18 18 19 19 20 20 21 21 22 22 23 23
REMARK SMILES IDX 24 24
REMARK H PARENT
REMARK Flexibility Score: inf
ROOT
ATOM      1  C   UNL     1       6.945  -8.700   5.652  1.00  0.00     0.000 C 
ENDROOT
BRANCH   1   2
ATOM      2  C   UNL     1       6.348 -10.111   5.530  1.00  0.00     0.000 C 
BRANCH   2   3
ATOM      3  C   UNL     1       4.822 -10.100   5.319  1.00  0.00     0.000 C 
BRANCH   3   4
ATOM      4  C   UNL     1       4.027  -9.349   6.405  1.00  0.00    -0.000 C 
BRANCH   4   5
ATOM      5  C   UNL     1       4.183  -9.977   7.801  1.00  0.00    -0.000 C 
BRANCH   5   6
ATOM      6  C   UNL     1       3.193  -9.395   8.822  1.00  0.00    -0.000 C 
BRANCH   6   7
ATOM      7  C   UNL     1       3.884  -8.953  10.124  1.00  0.00    -0.000 C 
BRANCH   7   8
ATOM      8  C   UNL     1       5.404  -9.217  10.095  1.00  0.00    -0.000 C 
BRANCH   8   9
ATOM      9  C   UNL     1       6.249  -7.940   9.950  1.00  0.00    -0.000 C 
BRANCH   9  10
ATOM     10  C   UNL     1       7.757  -8.225   9.886  1.00  0.00    -0.000 C 
BRANCH  10  11
ATOM     11  C   UNL     1       8.076  -9.565   9.203  1.00  0.00    -0.003 C 
ATOM     12  C   UNL     1       9.571  -9.755   8.950  1.00  0.00     0.004 C 
ENDBRANCH  10  11
ENDBRANCH   9  10
ENDBRANCH   8   9
ENDBRANCH   7   8
ENDBRANCH   6   7
ENDBRANCH   5   6
ENDBRANCH   4   5
ENDBRANCH   3   4
ENDBRANCH   2   3
ENDBRANCH   1   2
BRANCH   1  13
ATOM     13  C   UNL     1       5.960  -7.600   5.196  1.00  0.00     0.000 C 
BRANCH  13  14
ATOM     14  C   UNL     1       5.492  -6.673   6.335  1.00  0.00     0.000 C 
BRANCH  14  15
ATOM     15  C   UNL     1       5.757  -5.174   6.105  1.00  0.00     0.000 C 
BRANCH  15  16
ATOM     16  C   UNL     1       5.887  -4.752   4.628  1.00  0.00     0.000 C 
BRANCH  16  17
ATOM     17  C   UNL     1       5.193  -3.424   4.262  1.00  0.00     0.000 C 
BRANCH  17  18
ATOM     18  C   UNL     1       4.077  -3.538   3.208  1.00  0.00     0.000 C 
BRANCH  18  19
ATOM     19  C   UNL     1       2.670  -3.368   3.808  1.00  0.00     0.000 C 
BRANCH  19  20
ATOM     20  C   UNL     1       1.601  -4.195   3.065  1.00  0.00     0.006 C 
BRANCH  20  21
ATOM     21  C   UNL     1       1.107  -3.563   1.752  1.00  0.00     0.053 C 
BRANCH  21  22
ATOM     22  C   UNL     1       1.713  -2.214   1.514  1.00  0.00     0.041 C 
ATOM     23  O   UNL     1       2.584  -2.058   0.619  1.00  0.00    -0.550 OA
ATOM     24  O   UNL     1       1.293  -1.121   2.264  1.00  0.00    -0.550 OA
ENDBRANCH  21  22
ENDBRANCH  20  21
ENDBRANCH  19  20
ENDBRANCH  18  19
ENDBRANCH  17  18
ENDBRANCH  16  17
ENDBRANCH  15  16
ENDBRANCH  14  15
ENDBRANCH  13  14
ENDBRANCH   1  13
TORSDOF 20
ENDMDL
