MODEL 1
REMARK VINA RESULT:    -3.079      0.000      0.000
REMARK INTER + INTRA:          -3.979
REMARK INTER:                  -3.709
REMARK INTRA:                  -0.270
REMARK UNBOUND:                -0.270
REMARK SMILES O=c1c(O)c(-c2ccc(O)c(O)c2)oc2cc(O)cc(O)c12
REMARK SMILES IDX 5 1 3 2 2 3 1 4 22 5 20 6 19 7 17 8 16 9 15 10 14 11 6 12
REMARK SMILES IDX 7 13 8 14 9 15 13 16 11 17 10 18 12 20 4 22 21 24 18 26
REMARK H PARENT 10 19 12 21 4 23 21 25 18 27
REMARK Flexibility Score: inf
ROOT
ATOM      1  C   UNL     1       6.976   3.940  13.365  1.00  0.00     0.180 A 
ATOM      2  C   UNL     1       7.377   4.816  12.339  1.00  0.00     0.208 A 
ATOM      3  C   UNL     1       7.383   6.197  12.589  1.00  0.00     0.238 A 
ATOM      4  O   UNL     1       7.730   6.992  11.674  1.00  0.00    -0.285 OA
ATOM      5  C   UNL     1       7.008   6.676  13.861  1.00  0.00     0.111 A 
ATOM      6  C   UNL     1       6.989   8.052  14.195  1.00  0.00     0.134 A 
ATOM      7  C   UNL     1       6.612   8.449  15.487  1.00  0.00     0.093 A 
ATOM      8  C   UNL     1       6.255   7.497  16.449  1.00  0.00     0.123 A 
ATOM      9  C   UNL     1       6.270   6.140  16.123  1.00  0.00     0.094 A 
ATOM     10  C   UNL     1       6.642   5.724  14.842  1.00  0.00     0.146 A 
ATOM     11  O   UNL     1       6.643   4.426  14.558  1.00  0.00    -0.452 OA
ENDROOT
BRANCH   1  12
ATOM     12  C   UNL     1       6.926   2.472  13.173  1.00  0.00     0.025 A 
ATOM     13  C   UNL     1       5.914   1.869  12.408  1.00  0.00     0.016 A 
ATOM     14  C   UNL     1       5.875   0.481  12.261  1.00  0.00     0.051 A 
ATOM     15  C   UNL     1       6.830  -0.332  12.882  1.00  0.00     0.157 A 
ATOM     16  C   UNL     1       7.872   1.658  13.814  1.00  0.00     0.062 A 
ATOM     17  C   UNL     1       7.841   0.265  13.673  1.00  0.00     0.158 A 
BRANCH  15  18
ATOM     18  O   UNL     1       6.736  -1.712  12.691  1.00  0.00    -0.504 OA
ATOM     19  H   UNL     1       6.329  -2.348  13.361  1.00  0.00     0.293 HD
ENDBRANCH  15  18
BRANCH  17  20
ATOM     20  O   UNL     1       8.822  -0.480  14.330  1.00  0.00    -0.504 OA
ATOM     21  H   UNL     1       9.786  -0.528  14.034  1.00  0.00     0.293 HD
ENDBRANCH  17  20
ENDBRANCH   1  12
BRANCH   2  22
ATOM     22  O   UNL     1       7.791   4.313  11.103  1.00  0.00    -0.502 OA
ATOM     23  H   UNL     1       8.087   4.913  10.343  1.00  0.00     0.293 HD
ENDBRANCH   2  22
BRANCH   6  24
ATOM     24  O   UNL     1       7.341   9.024  13.258  1.00  0.00    -0.507 OA
ATOM     25  H   UNL     1       6.643   9.530  12.727  1.00  0.00     0.293 HD
ENDBRANCH   6  24
BRANCH   8  26
ATOM     26  O   UNL     1       5.881   7.891  17.732  1.00  0.00    -0.508 OA
ATOM     27  H   UNL     1       4.924   8.140  17.954  1.00  0.00     0.293 HD
ENDBRANCH   8  26
TORSDOF 6
ENDMDL
MODEL 2
REMARK VINA RESULT:    -2.708      2.579      8.237
REMARK INTER + INTRA:          -3.533
REMARK INTER:                  -3.599
REMARK INTRA:                   0.066
REMARK UNBOUND:                -0.270
REMARK SMILES O=c1c(O)c(-c2ccc(O)c(O)c2)oc2cc(O)cc(O)c12
REMARK SMILES IDX 5 1 3 2 2 3 1 4 22 5 20 6 19 7 17 8 16 9 15 10 14 11 6 12
REMARK SMILES IDX 7 13 8 14 9 15 13 16 11 17 10 18 12 20 4 22 21 24 18 26
REMARK H PARENT 10 19 12 21 4 23 21 25 18 27
REMARK Flexibility Score: inf
ROOT
ATOM      1  C   UNL     1       6.741   0.003  12.887  1.00  0.00     0.180 A 
ATOM      2  C   UNL     1       6.301  -0.507  11.651  1.00  0.00     0.208 A 
ATOM      3  C   UNL     1       6.261  -1.898  11.465  1.00  0.00     0.238 A 
ATOM      4  O   UNL     1       5.878  -2.366  10.359  1.00  0.00    -0.285 OA
ATOM      5  C   UNL     1       6.641  -2.752  12.521  1.00  0.00     0.111 A 
ATOM      6  C   UNL     1       6.628  -4.164  12.417  1.00  0.00     0.134 A 
ATOM      7  C   UNL     1       7.013  -4.947  13.516  1.00  0.00     0.093 A 
ATOM      8  C   UNL     1       7.411  -4.344  14.715  1.00  0.00     0.123 A 
ATOM      9  C   UNL     1       7.427  -2.953  14.821  1.00  0.00     0.094 A 
ATOM     10  C   UNL     1       7.048  -2.155  13.738  1.00  0.00     0.146 A 
ATOM     11  O   UNL     1       7.078  -0.833  13.865  1.00  0.00    -0.452 OA
ENDROOT
BRANCH   1  12
ATOM     12  C   UNL     1       6.829   1.457  13.153  1.00  0.00     0.025 A 
ATOM     13  C   UNL     1       6.275   2.022  14.313  1.00  0.00     0.016 A 
ATOM     14  C   UNL     1       6.349   3.399  14.531  1.00  0.00     0.051 A 
ATOM     15  C   UNL     1       6.962   4.240  13.595  1.00  0.00     0.157 A 
ATOM     16  C   UNL     1       7.425   2.300  12.203  1.00  0.00     0.062 A 
ATOM     17  C   UNL     1       7.503   3.683  12.412  1.00  0.00     0.158 A 
BRANCH  15  18
ATOM     18  O   UNL     1       7.006   5.607  13.875  1.00  0.00    -0.504 OA
ATOM     19  H   UNL     1       7.841   6.171  13.803  1.00  0.00     0.293 HD
ENDBRANCH  15  18
BRANCH  17  20
ATOM     20  O   UNL     1       8.121   4.457  11.428  1.00  0.00    -0.504 OA
ATOM     21  H   UNL     1       8.564   4.075  10.605  1.00  0.00     0.293 HD
ENDBRANCH  17  20
ENDBRANCH   1  12
BRANCH   2  22
ATOM     22  O   UNL     1       5.882   0.360  10.639  1.00  0.00    -0.502 OA
ATOM     23  H   UNL     1       4.904   0.555  10.460  1.00  0.00     0.293 HD
ENDBRANCH   2  22
BRANCH   6  24
ATOM     24  O   UNL     1       6.235  -4.794  11.235  1.00  0.00    -0.507 OA
ATOM     25  H   UNL     1       6.528  -5.737  11.011  1.00  0.00     0.293 HD
ENDBRANCH   6  24
BRANCH   8  26
ATOM     26  O   UNL     1       7.792  -5.121  15.807  1.00  0.00    -0.508 OA
ATOM     27  H   UNL     1       8.552  -5.789  15.743  1.00  0.00     0.293 HD
ENDBRANCH   8  26
TORSDOF 6
ENDMDL
MODEL 3
REMARK VINA RESULT:    -2.642      2.616      8.355
REMARK INTER + INTRA:          -3.453
REMARK INTER:                  -3.323
REMARK INTRA:                  -0.130
REMARK UNBOUND:                -0.270
REMARK SMILES O=c1c(O)c(-c2ccc(O)c(O)c2)oc2cc(O)cc(O)c12
REMARK SMILES IDX 5 1 3 2 2 3 1 4 22 5 20 6 19 7 17 8 16 9 15 10 14 11 6 12
REMARK SMILES IDX 7 13 8 14 9 15 13 16 11 17 10 18 12 20 4 22 21 24 18 26
REMARK H PARENT 10 19 12 21 4 23 21 25 18 27
REMARK Flexibility Score: inf
ROOT
ATOM      1  C   UNL     1       6.637   0.584  12.702  1.00  0.00     0.180 A 
ATOM      2  C   UNL     1       6.254  -0.138  13.848  1.00  0.00     0.208 A 
ATOM      3  C   UNL     1       6.227  -1.540  13.789  1.00  0.00     0.238 A 
ATOM      4  O   UNL     1       5.875  -2.198  14.806  1.00  0.00    -0.285 OA
ATOM      5  C   UNL     1       6.601  -2.195  12.597  1.00  0.00     0.111 A 
ATOM      6  C   UNL     1       6.603  -3.603  12.456  1.00  0.00     0.134 A 
ATOM      7  C   UNL     1       6.998  -4.180  11.239  1.00  0.00     0.093 A 
ATOM      8  C   UNL     1       7.388  -3.375  10.163  1.00  0.00     0.123 A 
ATOM      9  C   UNL     1       7.385  -1.986  10.298  1.00  0.00     0.094 A 
ATOM     10  C   UNL     1       6.995  -1.392  11.501  1.00  0.00     0.146 A 
ATOM     11  O   UNL     1       6.997  -0.067  11.600  1.00  0.00    -0.452 OA
ENDROOT
BRANCH   1  12
ATOM     12  C   UNL     1       6.673   2.065  12.679  1.00  0.00     0.025 A 
ATOM     13  C   UNL     1       5.875   2.801  11.789  1.00  0.00     0.016 A 
ATOM     14  C   UNL     1       5.943   4.195  11.770  1.00  0.00     0.051 A 
ATOM     15  C   UNL     1       6.815   4.881  12.625  1.00  0.00     0.157 A 
ATOM     16  C   UNL     1       7.562   2.748  13.522  1.00  0.00     0.062 A 
ATOM     17  C   UNL     1       7.638   4.146  13.510  1.00  0.00     0.158 A 
BRANCH  15  18
ATOM     18  O   UNL     1       6.831   6.275  12.558  1.00  0.00    -0.504 OA
ATOM     19  H   UNL     1       6.629   6.880  13.342  1.00  0.00     0.293 HD
ENDBRANCH  15  18
BRANCH  17  20
ATOM     20  O   UNL     1       8.538   4.758  14.385  1.00  0.00    -0.504 OA
ATOM     21  H   UNL     1       8.373   5.648  14.833  1.00  0.00     0.293 HD
ENDBRANCH  17  20
ENDBRANCH   1  12
BRANCH   2  22
ATOM     22  O   UNL     1       5.936   0.533  15.031  1.00  0.00    -0.502 OA
ATOM     23  H   UNL     1       6.575   1.178  15.479  1.00  0.00     0.293 HD
ENDBRANCH   2  22
BRANCH   6  24
ATOM     24  O   UNL     1       6.220  -4.433  13.511  1.00  0.00    -0.507 OA
ATOM     25  H   UNL     1       5.803  -5.342  13.350  1.00  0.00     0.293 HD
ENDBRANCH   6  24
BRANCH   8  26
ATOM     26  O   UNL     1       7.781  -3.947   8.955  1.00  0.00    -0.508 OA
ATOM     27  H   UNL     1       7.112  -4.392   8.336  1.00  0.00     0.293 HD
ENDBRANCH   8  26
TORSDOF 6
ENDMDL
MODEL 4
REMARK VINA RESULT:    -1.524      1.976      6.939
REMARK INTER + INTRA:          -2.106
REMARK INTER:                  -1.973
REMARK INTRA:                  -0.133
REMARK UNBOUND:                -0.270
REMARK SMILES O=c1c(O)c(-c2ccc(O)c(O)c2)oc2cc(O)cc(O)c12
REMARK SMILES IDX 5 1 3 2 2 3 1 4 22 5 20 6 19 7 17 8 16 9 15 10 14 11 6 12
REMARK SMILES IDX 7 13 8 14 9 15 13 16 11 17 10 18 12 20 4 22 21 24 18 26
REMARK H PARENT 10 19 12 21 4 23 21 25 18 27
REMARK Flexibility Score: inf
ROOT
ATOM      1  C   UNL     1       6.929   2.883  12.702  1.00  0.00     0.180 A 
ATOM      2  C   UNL     1       6.478   2.658  11.388  1.00  0.00     0.208 A 
ATOM      3  C   UNL     1       6.268   1.339  10.957  1.00  0.00     0.238 A 
ATOM      4  O   UNL     1       5.875   1.125   9.779  1.00  0.00    -0.285 OA
ATOM      5  C   UNL     1       6.493   0.271  11.851  1.00  0.00     0.111 A 
ATOM      6  C   UNL     1       6.303  -1.086  11.498  1.00  0.00     0.134 A 
ATOM      7  C   UNL     1       6.539  -2.092  12.447  1.00  0.00     0.093 A 
ATOM      8  C   UNL     1       6.960  -1.765  13.741  1.00  0.00     0.123 A 
ATOM      9  C   UNL     1       7.151  -0.428  14.093  1.00  0.00     0.094 A 
ATOM     10  C   UNL     1       6.922   0.589  13.162  1.00  0.00     0.146 A 
ATOM     11  O   UNL     1       7.115   1.852  13.522  1.00  0.00    -0.452 OA
ENDROOT
BRANCH   1  12
ATOM     12  C   UNL     1       7.191   4.244  13.224  1.00  0.00     0.025 A 
ATOM     13  C   UNL     1       6.169   5.203  13.307  1.00  0.00     0.016 A 
ATOM     14  C   UNL     1       6.444   6.487  13.781  1.00  0.00     0.051 A 
ATOM     15  C   UNL     1       7.742   6.845  14.166  1.00  0.00     0.157 A 
ATOM     16  C   UNL     1       8.496   4.605  13.590  1.00  0.00     0.062 A 
ATOM     17  C   UNL     1       8.783   5.891  14.066  1.00  0.00     0.158 A 
BRANCH  15  18
ATOM     18  O   UNL     1       7.949   8.143  14.635  1.00  0.00    -0.504 OA
ATOM     19  H   UNL     1       8.689   8.749  14.310  1.00  0.00     0.293 HD
ENDBRANCH  15  18
BRANCH  17  20
ATOM     20  O   UNL     1      10.102   6.175  14.422  1.00  0.00    -0.504 OA
ATOM     21  H   UNL     1      10.415   6.299  15.374  1.00  0.00     0.293 HD
ENDBRANCH  17  20
ENDBRANCH   1  12
BRANCH   2  22
ATOM     22  O   UNL     1       6.216   3.736  10.538  1.00  0.00    -0.502 OA
ATOM     23  H   UNL     1       6.741   4.601  10.580  1.00  0.00     0.293 HD
ENDBRANCH   2  22
BRANCH   6  24
ATOM     24  O   UNL     1       5.882  -1.444  10.216  1.00  0.00    -0.507 OA
ATOM     25  H   UNL     1       6.518  -1.846   9.539  1.00  0.00     0.293 HD
ENDBRANCH   6  24
BRANCH   8  26
ATOM     26  O   UNL     1       7.194  -2.764  14.684  1.00  0.00    -0.508 OA
ATOM     27  H   UNL     1       6.496  -3.467  14.896  1.00  0.00     0.293 HD
ENDBRANCH   8  26
TORSDOF 6
ENDMDL
