MODEL 1
REMARK VINA RESULT:    -6.445      0.000      0.000
REMARK INTER + INTRA:          -9.546
REMARK INTER:                  -8.518
REMARK INTRA:                  -1.028
REMARK UNBOUND:                -1.028
REMARK SMILES CC[C@H](C=C[C@H](C)[C@H]1CC[C@H]2C3=CC[C@H]4C[C@H](O)CC[C@@]4(C)[C@@H]3CC[C@@]12C)C(C)C
REMARK SMILES IDX 6 1 7 2 5 3 4 4 3 5 2 6 1 7 28 8 29 9 30 10 8 11 9 12 26 13
REMARK SMILES IDX 10 14 11 15 25 16 27 17 12 18 24 19 23 20 13 21 21 22 14 23
REMARK SMILES IDX 15 24 20 25 22 26 16 27 19 28 17 29 18 30
REMARK H PARENT 18 31
REMARK Flexibility Score: inf
ROOT
ATOM      1  C   UNL     1     135.229 140.401 137.942  1.00  0.00     0.012 C 
ATOM      2  C   UNL     1     135.452 138.888 138.043  1.00  0.00     0.012 C 
ENDROOT
BRANCH   1   3
ATOM      3  C   UNL     1     133.833 140.695 137.430  1.00  0.00    -0.028 C 
ATOM      4  C   UNL     1     132.808 139.870 137.704  1.00  0.00    -0.027 C 
BRANCH   4   5
ATOM      5  C   UNL     1     131.414 140.126 137.161  1.00  0.00     0.014 C 
BRANCH   5   6
ATOM      6  C   UNL     1     130.949 138.938 136.292  1.00  0.00     0.004 C 
ATOM      7  C   UNL     1     131.924 137.762 136.360  1.00  0.00     0.004 C 
ENDBRANCH   5   6
BRANCH   5   8
ATOM      8  C   UNL     1     130.402 140.453 138.298  1.00  0.00    -0.011 C 
ATOM      9  C   UNL     1     131.107 141.108 139.495  1.00  0.00     0.008 C 
ATOM     10  C   UNL     1     129.586 139.235 138.766  1.00  0.00     0.008 C 
ENDBRANCH   5   8
ENDBRANCH   4   5
ENDBRANCH   1   3
BRANCH   1  11
ATOM     11  C   UNL     1     135.663 141.177 139.235  1.00  0.00     0.002 C 
ATOM     12  C   UNL     1     135.698 140.294 140.492  1.00  0.00     0.005 C 
ATOM     13  C   UNL     1     136.972 142.031 139.281  1.00  0.00    -0.023 C 
ATOM     14  C   UNL     1     136.640 140.979 141.482  1.00  0.00     0.009 C 
ATOM     15  C   UNL     1     137.133 142.262 140.804  1.00  0.00     0.021 C 
ATOM     16  C   UNL     1     138.201 141.268 138.721  1.00  0.00     0.008 C 
ATOM     17  C   UNL     1     136.797 143.399 138.570  1.00  0.00     0.012 C 
ATOM     18  C   UNL     1     138.536 142.649 141.261  1.00  0.00    -0.067 C 
ATOM     19  C   UNL     1     139.524 141.968 139.043  1.00  0.00     0.009 C 
ATOM     20  C   UNL     1     139.751 142.029 140.570  1.00  0.00     0.021 C 
ATOM     21  C   UNL     1     138.656 143.323 142.426  1.00  0.00    -0.027 C 
ATOM     22  C   UNL     1     141.119 142.695 140.984  1.00  0.00    -0.023 C 
ATOM     23  C   UNL     1     139.971 143.736 143.024  1.00  0.00     0.031 C 
ATOM     24  C   UNL     1     141.160 142.889 142.533  1.00  0.00     0.002 C 
ATOM     25  C   UNL     1     142.345 141.820 140.573  1.00  0.00     0.010 C 
ATOM     26  C   UNL     1     141.286 144.078 140.296  1.00  0.00     0.012 C 
ATOM     27  C   UNL     1     141.228 141.542 143.296  1.00  0.00     0.036 C 
ATOM     28  C   UNL     1     142.436 140.485 141.328  1.00  0.00     0.032 C 
ATOM     29  C   UNL     1     142.422 140.684 142.854  1.00  0.00     0.114 C 
BRANCH  29  30
ATOM     30  O   UNL     1     143.620 141.279 143.282  1.00  0.00    -0.393 OA
ATOM     31  H   UNL     1     144.112 140.594 143.806  1.00  0.00     0.210 HD
ENDBRANCH  29  30
ENDBRANCH   1  11
TORSDOF 6
ENDMDL
MODEL 2
REMARK VINA RESULT:    -6.422      3.575     10.137
REMARK INTER + INTRA:          -9.516
REMARK INTER:                  -8.327
REMARK INTRA:                  -1.188
REMARK UNBOUND:                -1.028
REMARK SMILES CC[C@H](C=C[C@H](C)[C@H]1CC[C@H]2C3=CC[C@H]4C[C@H](O)CC[C@@]4(C)[C@@H]3CC[C@@]12C)C(C)C
REMARK SMILES IDX 6 1 7 2 5 3 4 4 3 5 2 6 1 7 28 8 29 9 30 10 8 11 9 12 26 13
REMARK SMILES IDX 10 14 11 15 25 16 27 17 12 18 24 19 23 20 13 21 21 22 14 23
REMARK SMILES IDX 15 24 20 25 22 26 16 27 19 28 17 29 18 30
REMARK H PARENT 18 31
REMARK Flexibility Score: inf
ROOT
ATOM      1  C   UNL     1     144.691 140.988 140.098  1.00  0.00     0.012 C 
ATOM      2  C   UNL     1     145.591 141.761 139.127  1.00  0.00     0.012 C 
ENDROOT
BRANCH   1   3
ATOM      3  C   UNL     1     145.529 140.131 141.025  1.00  0.00    -0.028 C 
ATOM      4  C   UNL     1     146.438 140.684 141.846  1.00  0.00    -0.027 C 
BRANCH   4   5
ATOM      5  C   UNL     1     147.317 139.837 142.747  1.00  0.00     0.014 C 
BRANCH   5   6
ATOM      6  C   UNL     1     148.800 140.234 142.579  1.00  0.00     0.004 C 
ATOM      7  C   UNL     1     148.961 141.505 141.744  1.00  0.00     0.004 C 
ENDBRANCH   5   6
BRANCH   5   8
ATOM      8  C   UNL     1     146.856 139.903 144.232  1.00  0.00    -0.011 C 
ATOM      9  C   UNL     1     148.058 139.841 145.188  1.00  0.00     0.008 C 
ATOM     10  C   UNL     1     145.826 138.823 144.607  1.00  0.00     0.008 C 
ENDBRANCH   5   8
ENDBRANCH   4   5
ENDBRANCH   1   3
BRANCH   1  11
ATOM     11  C   UNL     1     143.610 141.891 140.790  1.00  0.00     0.002 C 
ATOM     12  C   UNL     1     143.016 142.955 139.853  1.00  0.00     0.005 C 
ATOM     13  C   UNL     1     142.393 141.276 141.556  1.00  0.00    -0.023 C 
ATOM     14  C   UNL     1     141.655 143.340 140.435  1.00  0.00     0.009 C 
ATOM     15  C   UNL     1     141.473 142.512 141.712  1.00  0.00     0.021 C 
ATOM     16  C   UNL     1     141.673 140.170 140.741  1.00  0.00     0.008 C 
ATOM     17  C   UNL     1     142.796 140.756 142.961  1.00  0.00     0.012 C 
ATOM     18  C   UNL     1     140.005 142.202 141.990  1.00  0.00    -0.067 C 
ATOM     19  C   UNL     1     140.318 139.786 141.342  1.00  0.00     0.009 C 
ATOM     20  C   UNL     1     139.352 140.991 141.324  1.00  0.00     0.021 C 
ATOM     21  C   UNL     1     139.267 143.152 142.605  1.00  0.00    -0.027 C 
ATOM     22  C   UNL     1     137.915 140.663 141.884  1.00  0.00    -0.023 C 
ATOM     23  C   UNL     1     137.802 143.009 142.909  1.00  0.00     0.031 C 
ATOM     24  C   UNL     1     137.088 141.983 142.010  1.00  0.00     0.002 C 
ATOM     25  C   UNL     1     137.131 139.687 140.952  1.00  0.00     0.010 C 
ATOM     26  C   UNL     1     138.011 139.992 143.282  1.00  0.00     0.012 C 
ATOM     27  C   UNL     1     136.750 142.601 140.630  1.00  0.00     0.036 C 
ATOM     28  C   UNL     1     136.775 140.288 139.583  1.00  0.00     0.032 C 
ATOM     29  C   UNL     1     136.007 141.614 139.718  1.00  0.00     0.114 C 
BRANCH  29  30
ATOM     30  O   UNL     1     134.715 141.384 140.216  1.00  0.00    -0.393 OA
ATOM     31  H   UNL     1     134.474 140.451 139.979  1.00  0.00     0.210 HD
ENDBRANCH  29  30
ENDBRANCH   1  11
TORSDOF 6
ENDMDL
MODEL 3
REMARK VINA RESULT:    -6.388      1.422      2.647
REMARK INTER + INTRA:          -9.470
REMARK INTER:                  -8.198
REMARK INTRA:                  -1.272
REMARK UNBOUND:                -1.028
REMARK SMILES CC[C@H](C=C[C@H](C)[C@H]1CC[C@H]2C3=CC[C@H]4C[C@H](O)CC[C@@]4(C)[C@@H]3CC[C@@]12C)C(C)C
REMARK SMILES IDX 6 1 7 2 5 3 4 4 3 5 2 6 1 7 28 8 29 9 30 10 8 11 9 12 26 13
REMARK SMILES IDX 10 14 11 15 25 16 27 17 12 18 24 19 23 20 13 21 21 22 14 23
REMARK SMILES IDX 15 24 20 25 22 26 16 27 19 28 17 29 18 30
REMARK H PARENT 18 31
REMARK Flexibility Score: inf
ROOT
ATOM      1  C   UNL     1     134.764 140.369 136.374  1.00  0.00     0.012 C 
ATOM      2  C   UNL     1     135.264 139.724 135.075  1.00  0.00     0.012 C 
ENDROOT
BRANCH   1   3
ATOM      3  C   UNL     1     133.251 140.439 136.379  1.00  0.00    -0.028 C 
ATOM      4  C   UNL     1     132.515 139.463 136.940  1.00  0.00    -0.027 C 
BRANCH   4   5
ATOM      5  C   UNL     1     130.998 139.495 136.913  1.00  0.00     0.014 C 
BRANCH   5   6
ATOM      6  C   UNL     1     130.448 138.281 136.135  1.00  0.00     0.004 C 
ATOM      7  C   UNL     1     131.154 136.982 136.526  1.00  0.00     0.004 C 
ENDBRANCH   5   6
BRANCH   5   8
ATOM      8  C   UNL     1     130.397 139.594 138.346  1.00  0.00    -0.011 C 
ATOM      9  C   UNL     1     128.878 139.365 138.327  1.00  0.00     0.008 C 
ATOM     10  C   UNL     1     130.723 140.918 139.062  1.00  0.00     0.008 C 
ENDBRANCH   5   8
ENDBRANCH   4   5
ENDBRANCH   1   3
BRANCH   1  11
ATOM     11  C   UNL     1     135.428 139.763 137.660  1.00  0.00     0.002 C 
ATOM     12  C   UNL     1     136.758 139.047 137.379  1.00  0.00     0.005 C 
ATOM     13  C   UNL     1     135.674 140.624 138.942  1.00  0.00    -0.023 C 
ATOM     14  C   UNL     1     137.532 139.028 138.697  1.00  0.00     0.009 C 
ATOM     15  C   UNL     1     136.643 139.716 139.738  1.00  0.00     0.021 C 
ATOM     16  C   UNL     1     136.349 141.984 138.626  1.00  0.00     0.008 C 
ATOM     17  C   UNL     1     134.372 140.828 139.761  1.00  0.00     0.012 C 
ATOM     18  C   UNL     1     137.463 140.422 140.815  1.00  0.00    -0.067 C 
ATOM     19  C   UNL     1     136.868 142.688 139.883  1.00  0.00     0.009 C 
ATOM     20  C   UNL     1     137.966 141.844 140.566  1.00  0.00     0.021 C 
ATOM     21  C   UNL     1     137.934 139.676 141.838  1.00  0.00    -0.027 C 
ATOM     22  C   UNL     1     138.588 142.525 141.846  1.00  0.00    -0.023 C 
ATOM     23  C   UNL     1     138.787 140.220 142.949  1.00  0.00     0.031 C 
ATOM     24  C   UNL     1     139.533 141.513 142.570  1.00  0.00     0.002 C 
ATOM     25  C   UNL     1     139.421 143.795 141.488  1.00  0.00     0.010 C 
ATOM     26  C   UNL     1     137.470 142.966 142.830  1.00  0.00     0.012 C 
ATOM     27  C   UNL     1     140.802 141.194 141.741  1.00  0.00     0.036 C 
ATOM     28  C   UNL     1     140.691 143.496 140.676  1.00  0.00     0.032 C 
ATOM     29  C   UNL     1     141.589 142.460 141.373  1.00  0.00     0.114 C 
BRANCH  29  30
ATOM     30  O   UNL     1     142.172 143.010 142.526  1.00  0.00    -0.393 OA
ATOM     31  H   UNL     1     143.136 143.140 142.330  1.00  0.00     0.210 HD
ENDBRANCH  29  30
ENDBRANCH   1  11
TORSDOF 6
ENDMDL
MODEL 4
REMARK VINA RESULT:    -6.371      3.421      6.941
REMARK INTER + INTRA:          -9.448
REMARK INTER:                  -8.436
REMARK INTRA:                  -1.012
REMARK UNBOUND:                -1.028
REMARK SMILES CC[C@H](C=C[C@H](C)[C@H]1CC[C@H]2C3=CC[C@H]4C[C@H](O)CC[C@@]4(C)[C@@H]3CC[C@@]12C)C(C)C
REMARK SMILES IDX 6 1 7 2 5 3 4 4 3 5 2 6 1 7 28 8 29 9 30 10 8 11 9 12 26 13
REMARK SMILES IDX 10 14 11 15 25 16 27 17 12 18 24 19 23 20 13 21 21 22 14 23
REMARK SMILES IDX 15 24 20 25 22 26 16 27 19 28 17 29 18 30
REMARK H PARENT 18 31
REMARK Flexibility Score: inf
ROOT
ATOM      1  C   UNL     1     139.862 143.186 142.542  1.00  0.00     0.012 C 
ATOM      2  C   UNL     1     139.248 144.043 141.428  1.00  0.00     0.012 C 
ENDROOT
BRANCH   1   3
ATOM      3  C   UNL     1     138.944 142.030 142.884  1.00  0.00    -0.028 C 
ATOM      4  C   UNL     1     137.862 141.760 142.134  1.00  0.00    -0.027 C 
BRANCH   4   5
ATOM      5  C   UNL     1     136.908 140.635 142.489  1.00  0.00     0.014 C 
BRANCH   5   6
ATOM      6  C   UNL     1     136.208 140.102 141.220  1.00  0.00     0.004 C 
ATOM      7  C   UNL     1     135.428 141.198 140.494  1.00  0.00     0.004 C 
ENDBRANCH   5   6
BRANCH   5   8
ATOM      8  C   UNL     1     137.621 139.502 143.285  1.00  0.00    -0.011 C 
ATOM      9  C   UNL     1     138.263 138.479 142.336  1.00  0.00     0.008 C 
ATOM     10  C   UNL     1     136.706 138.786 144.294  1.00  0.00     0.008 C 
ENDBRANCH   5   8
ENDBRANCH   4   5
ENDBRANCH   1   3
BRANCH   1  11
ATOM     11  C   UNL     1     141.364 142.815 142.278  1.00  0.00     0.002 C 
ATOM     12  C   UNL     1     142.337 143.471 143.270  1.00  0.00     0.005 C 
ATOM     13  C   UNL     1     141.833 141.329 142.147  1.00  0.00    -0.023 C 
ATOM     14  C   UNL     1     143.604 142.617 143.271  1.00  0.00     0.009 C 
ATOM     15  C   UNL     1     143.369 141.481 142.270  1.00  0.00     0.021 C 
ATOM     16  C   UNL     1     141.289 140.430 143.289  1.00  0.00     0.008 C 
ATOM     17  C   UNL     1     141.486 140.732 140.758  1.00  0.00     0.012 C 
ATOM     18  C   UNL     1     144.122 140.211 142.657  1.00  0.00    -0.067 C 
ATOM     19  C   UNL     1     141.983 139.066 143.343  1.00  0.00     0.009 C 
ATOM     20  C   UNL     1     143.489 139.232 143.645  1.00  0.00     0.021 C 
ATOM     21  C   UNL     1     145.426 140.124 142.316  1.00  0.00    -0.027 C 
ATOM     22  C   UNL     1     144.268 137.866 143.765  1.00  0.00    -0.023 C 
ATOM     23  C   UNL     1     146.307 138.957 142.661  1.00  0.00     0.031 C 
ATOM     24  C   UNL     1     145.802 138.145 143.869  1.00  0.00     0.002 C 
ATOM     25  C   UNL     1     143.837 137.054 145.027  1.00  0.00     0.010 C 
ATOM     26  C   UNL     1     144.000 136.971 142.524  1.00  0.00     0.012 C 
ATOM     27  C   UNL     1     146.187 138.840 145.199  1.00  0.00     0.036 C 
ATOM     28  C   UNL     1     144.222 137.722 146.356  1.00  0.00     0.032 C 
ATOM     29  C   UNL     1     145.726 138.040 146.426  1.00  0.00     0.114 C 
BRANCH  29  30
ATOM     30  O   UNL     1     146.474 136.857 146.533  1.00  0.00    -0.393 OA
ATOM     31  H   UNL     1     145.888 136.181 146.963  1.00  0.00     0.210 HD
ENDBRANCH  29  30
ENDBRANCH   1  11
TORSDOF 6
ENDMDL
MODEL 5
REMARK VINA RESULT:    -6.368      3.277      8.999
REMARK INTER + INTRA:          -9.443
REMARK INTER:                  -8.145
REMARK INTRA:                  -1.298
REMARK UNBOUND:                -1.028
REMARK SMILES CC[C@H](C=C[C@H](C)[C@H]1CC[C@H]2C3=CC[C@H]4C[C@H](O)CC[C@@]4(C)[C@@H]3CC[C@@]12C)C(C)C
REMARK SMILES IDX 6 1 7 2 5 3 4 4 3 5 2 6 1 7 28 8 29 9 30 10 8 11 9 12 26 13
REMARK SMILES IDX 10 14 11 15 25 16 27 17 12 18 24 19 23 20 13 21 21 22 14 23
REMARK SMILES IDX 15 24 20 25 22 26 16 27 19 28 17 29 18 30
REMARK H PARENT 18 31
REMARK Flexibility Score: inf
ROOT
ATOM      1  C   UNL     1     137.357 141.057 142.338  1.00  0.00     0.012 C 
ATOM      2  C   UNL     1     137.612 139.905 143.318  1.00  0.00     0.012 C 
ENDROOT
BRANCH   1   3
ATOM      3  C   UNL     1     138.081 142.307 142.794  1.00  0.00    -0.028 C 
ATOM      4  C   UNL     1     139.231 142.692 142.214  1.00  0.00    -0.027 C 
BRANCH   4   5
ATOM      5  C   UNL     1     139.992 143.915 142.689  1.00  0.00     0.014 C 
BRANCH   5   6
ATOM      6  C   UNL     1     141.110 143.505 143.672  1.00  0.00     0.004 C 
ATOM      7  C   UNL     1     141.376 144.585 144.720  1.00  0.00     0.004 C 
ENDBRANCH   5   6
BRANCH   5   8
ATOM      8  C   UNL     1     140.539 144.755 141.497  1.00  0.00    -0.011 C 
ATOM      9  C   UNL     1     139.476 144.913 140.399  1.00  0.00     0.008 C 
ATOM     10  C   UNL     1     141.841 144.198 140.896  1.00  0.00     0.008 C 
ENDBRANCH   5   8
ENDBRANCH   4   5
ENDBRANCH   1   3
BRANCH   1  11
ATOM     11  C   UNL     1     137.568 140.651 140.838  1.00  0.00     0.002 C 
ATOM     12  C   UNL     1     137.769 139.140 140.639  1.00  0.00     0.005 C 
ATOM     13  C   UNL     1     136.574 141.096 139.716  1.00  0.00    -0.023 C 
ATOM     14  C   UNL     1     137.394 138.835 139.188  1.00  0.00     0.009 C 
ATOM     15  C   UNL     1     136.994 140.169 138.549  1.00  0.00     0.021 C 
ATOM     16  C   UNL     1     135.092 140.840 140.099  1.00  0.00     0.008 C 
ATOM     17  C   UNL     1     136.792 142.575 139.302  1.00  0.00     0.012 C 
ATOM     18  C   UNL     1     135.950 139.988 137.451  1.00  0.00    -0.067 C 
ATOM     19  C   UNL     1     134.145 140.981 138.904  1.00  0.00     0.009 C 
ATOM     20  C   UNL     1     134.469 139.927 137.823  1.00  0.00     0.021 C 
ATOM     21  C   UNL     1     136.384 139.629 136.223  1.00  0.00    -0.027 C 
ATOM     22  C   UNL     1     133.503 139.976 136.577  1.00  0.00    -0.023 C 
ATOM     23  C   UNL     1     135.474 139.376 135.053  1.00  0.00     0.031 C 
ATOM     24  C   UNL     1     134.035 139.015 135.465  1.00  0.00     0.002 C 
ATOM     25  C   UNL     1     132.051 139.536 136.943  1.00  0.00     0.010 C 
ATOM     26  C   UNL     1     133.421 141.417 136.004  1.00  0.00     0.012 C 
ATOM     27  C   UNL     1     133.936 137.525 135.875  1.00  0.00     0.036 C 
ATOM     28  C   UNL     1     131.932 138.056 137.340  1.00  0.00     0.032 C 
ATOM     29  C   UNL     1     132.505 137.122 136.261  1.00  0.00     0.114 C 
BRANCH  29  30
ATOM     30  O   UNL     1     131.686 137.126 135.122  1.00  0.00    -0.393 OA
ATOM     31  H   UNL     1     132.134 137.695 134.444  1.00  0.00     0.210 HD
ENDBRANCH  29  30
ENDBRANCH   1  11
TORSDOF 6
ENDMDL
MODEL 6
REMARK VINA RESULT:    -6.286      7.131     11.295
REMARK INTER + INTRA:          -9.335
REMARK INTER:                  -7.962
REMARK INTRA:                  -1.373
REMARK UNBOUND:                -1.028
REMARK SMILES CC[C@H](C=C[C@H](C)[C@H]1CC[C@H]2C3=CC[C@H]4C[C@H](O)CC[C@@]4(C)[C@@H]3CC[C@@]12C)C(C)C
REMARK SMILES IDX 6 1 7 2 5 3 4 4 3 5 2 6 1 7 28 8 29 9 30 10 8 11 9 12 26 13
REMARK SMILES IDX 10 14 11 15 25 16 27 17 12 18 24 19 23 20 13 21 21 22 14 23
REMARK SMILES IDX 15 24 20 25 22 26 16 27 19 28 17 29 18 30
REMARK H PARENT 18 31
REMARK Flexibility Score: inf
ROOT
ATOM      1  C   UNL     1     147.562 140.131 142.521  1.00  0.00     0.012 C 
ATOM      2  C   UNL     1     148.948 140.678 142.881  1.00  0.00     0.012 C 
ENDROOT
BRANCH   1   3
ATOM      3  C   UNL     1     146.782 139.802 143.778  1.00  0.00    -0.028 C 
ATOM      4  C   UNL     1     146.265 138.576 143.971  1.00  0.00    -0.027 C 
BRANCH   4   5
ATOM      5  C   UNL     1     145.444 138.244 145.202  1.00  0.00     0.014 C 
BRANCH   5   6
ATOM      6  C   UNL     1     144.093 137.617 144.794  1.00  0.00     0.004 C 
ATOM      7  C   UNL     1     144.026 137.326 143.295  1.00  0.00     0.004 C 
ENDBRANCH   5   6
BRANCH   5   8
ATOM      8  C   UNL     1     146.232 137.342 146.197  1.00  0.00    -0.011 C 
ATOM      9  C   UNL     1     145.301 136.334 146.887  1.00  0.00     0.008 C 
ATOM     10  C   UNL     1     147.028 138.134 147.250  1.00  0.00     0.008 C 
ENDBRANCH   5   8
ENDBRANCH   4   5
ENDBRANCH   1   3
BRANCH   1  11
ATOM     11  C   UNL     1     146.811 141.004 141.456  1.00  0.00     0.002 C 
ATOM     12  C   UNL     1     147.701 141.425 140.276  1.00  0.00     0.005 C 
ATOM     13  C   UNL     1     145.457 140.545 140.822  1.00  0.00    -0.023 C 
ATOM     14  C   UNL     1     146.762 141.739 139.110  1.00  0.00     0.009 C 
ATOM     15  C   UNL     1     145.336 141.516 139.623  1.00  0.00     0.021 C 
ATOM     16  C   UNL     1     145.503 139.076 140.322  1.00  0.00     0.008 C 
ATOM     17  C   UNL     1     144.261 140.765 141.785  1.00  0.00     0.012 C 
ATOM     18  C   UNL     1     144.391 141.067 138.511  1.00  0.00    -0.067 C 
ATOM     19  C   UNL     1     144.306 138.722 139.434  1.00  0.00     0.009 C 
ATOM     20  C   UNL     1     144.304 139.583 138.152  1.00  0.00     0.021 C 
ATOM     21  C   UNL     1     143.862 142.018 137.712  1.00  0.00    -0.027 C 
ATOM     22  C   UNL     1     143.125 139.244 137.160  1.00  0.00    -0.023 C 
ATOM     23  C   UNL     1     142.950 141.727 136.553  1.00  0.00     0.031 C 
ATOM     24  C   UNL     1     143.095 140.296 136.005  1.00  0.00     0.002 C 
ATOM     25  C   UNL     1     143.286 137.828 136.522  1.00  0.00     0.010 C 
ATOM     26  C   UNL     1     141.761 139.267 137.902  1.00  0.00     0.012 C 
ATOM     27  C   UNL     1     144.327 140.185 135.073  1.00  0.00     0.036 C 
ATOM     28  C   UNL     1     144.497 137.704 135.584  1.00  0.00     0.032 C 
ATOM     29  C   UNL     1     144.484 138.776 134.481  1.00  0.00     0.114 C 
BRANCH  29  30
ATOM     30  O   UNL     1     143.450 138.527 133.565  1.00  0.00    -0.393 OA
ATOM     31  H   UNL     1     143.009 139.397 133.381  1.00  0.00     0.210 HD
ENDBRANCH  29  30
ENDBRANCH   1  11
TORSDOF 6
ENDMDL
MODEL 7
REMARK VINA RESULT:    -6.187      3.695     10.316
REMARK INTER + INTRA:          -9.204
REMARK INTER:                  -7.901
REMARK INTRA:                  -1.304
REMARK UNBOUND:                -1.028
REMARK SMILES CC[C@H](C=C[C@H](C)[C@H]1CC[C@H]2C3=CC[C@H]4C[C@H](O)CC[C@@]4(C)[C@@H]3CC[C@@]12C)C(C)C
REMARK SMILES IDX 6 1 7 2 5 3 4 4 3 5 2 6 1 7 28 8 29 9 30 10 8 11 9 12 26 13
REMARK SMILES IDX 10 14 11 15 25 16 27 17 12 18 24 19 23 20 13 21 21 22 14 23
REMARK SMILES IDX 15 24 20 25 22 26 16 27 19 28 17 29 18 30
REMARK H PARENT 18 31
REMARK Flexibility Score: inf
ROOT
ATOM      1  C   UNL     1     144.375 138.192 142.134  1.00  0.00     0.012 C 
ATOM      2  C   UNL     1     144.010 136.778 141.666  1.00  0.00     0.012 C 
ENDROOT
BRANCH   1   3
ATOM      3  C   UNL     1     145.870 138.304 142.357  1.00  0.00    -0.028 C 
ATOM      4  C   UNL     1     146.441 139.488 142.637  1.00  0.00    -0.027 C 
BRANCH   4   5
ATOM      5  C   UNL     1     147.941 139.625 142.818  1.00  0.00     0.014 C 
BRANCH   5   6
ATOM      6  C   UNL     1     148.478 140.806 141.983  1.00  0.00     0.004 C 
ATOM      7  C   UNL     1     147.392 141.428 141.105  1.00  0.00     0.004 C 
ENDBRANCH   5   6
BRANCH   5   8
ATOM      8  C   UNL     1     148.333 139.742 144.321  1.00  0.00    -0.011 C 
ATOM      9  C   UNL     1     148.985 138.446 144.826  1.00  0.00     0.008 C 
ATOM     10  C   UNL     1     147.160 140.136 145.235  1.00  0.00     0.008 C 
ENDBRANCH   5   8
ENDBRANCH   4   5
ENDBRANCH   1   3
BRANCH   1  11
ATOM     11  C   UNL     1     143.726 139.319 141.257  1.00  0.00     0.002 C 
ATOM     12  C   UNL     1     143.043 138.786 139.987  1.00  0.00     0.005 C 
ATOM     13  C   UNL     1     142.734 140.365 141.863  1.00  0.00    -0.023 C 
ATOM     14  C   UNL     1     142.017 139.837 139.567  1.00  0.00     0.009 C 
ATOM     15  C   UNL     1     142.119 140.981 140.582  1.00  0.00     0.021 C 
ATOM     16  C   UNL     1     141.627 139.704 142.726  1.00  0.00     0.008 C 
ATOM     17  C   UNL     1     143.473 141.470 142.661  1.00  0.00     0.012 C 
ATOM     18  C   UNL     1     140.785 141.696 140.777  1.00  0.00    -0.067 C 
ATOM     19  C   UNL     1     140.489 140.672 143.062  1.00  0.00     0.009 C 
ATOM     20  C   UNL     1     139.772 141.138 141.776  1.00  0.00     0.021 C 
ATOM     21  C   UNL     1     140.440 142.642 139.877  1.00  0.00    -0.027 C 
ATOM     22  C   UNL     1     138.553 142.103 142.042  1.00  0.00    -0.023 C 
ATOM     23  C   UNL     1     139.144 143.402 139.914  1.00  0.00     0.031 C 
ATOM     24  C   UNL     1     138.029 142.671 140.684  1.00  0.00     0.002 C 
ATOM     25  C   UNL     1     137.369 141.372 142.750  1.00  0.00     0.010 C 
ATOM     26  C   UNL     1     138.979 143.286 142.955  1.00  0.00     0.012 C 
ATOM     27  C   UNL     1     137.373 141.580 139.801  1.00  0.00     0.036 C 
ATOM     28  C   UNL     1     136.699 140.294 141.884  1.00  0.00     0.032 C 
ATOM     29  C   UNL     1     136.233 140.852 140.528  1.00  0.00     0.114 C 
BRANCH  29  30
ATOM     30  O   UNL     1     135.146 141.723 140.702  1.00  0.00    -0.393 OA
ATOM     31  H   UNL     1     134.987 142.166 139.828  1.00  0.00     0.210 HD
ENDBRANCH  29  30
ENDBRANCH   1  11
TORSDOF 6
ENDMDL
MODEL 8
REMARK VINA RESULT:    -6.131      8.837     12.384
REMARK INTER + INTRA:          -9.130
REMARK INTER:                  -7.968
REMARK INTRA:                  -1.162
REMARK UNBOUND:                -1.028
REMARK SMILES CC[C@H](C=C[C@H](C)[C@H]1CC[C@H]2C3=CC[C@H]4C[C@H](O)CC[C@@]4(C)[C@@H]3CC[C@@]12C)C(C)C
REMARK SMILES IDX 6 1 7 2 5 3 4 4 3 5 2 6 1 7 28 8 29 9 30 10 8 11 9 12 26 13
REMARK SMILES IDX 10 14 11 15 25 16 27 17 12 18 24 19 23 20 13 21 21 22 14 23
REMARK SMILES IDX 15 24 20 25 22 26 16 27 19 28 17 29 18 30
REMARK H PARENT 18 31
REMARK Flexibility Score: inf
ROOT
ATOM      1  C   UNL     1     145.050 138.149 145.519  1.00  0.00     0.012 C 
ATOM      2  C   UNL     1     146.225 138.504 146.438  1.00  0.00     0.012 C 
ENDROOT
BRANCH   1   3
ATOM      3  C   UNL     1     145.272 138.725 144.134  1.00  0.00    -0.028 C 
ATOM      4  C   UNL     1     146.335 138.362 143.396  1.00  0.00    -0.027 C 
BRANCH   4   5
ATOM      5  C   UNL     1     146.596 138.963 142.028  1.00  0.00     0.014 C 
BRANCH   5   6
ATOM      6  C   UNL     1     145.302 138.968 141.187  1.00  0.00     0.004 C 
ATOM      7  C   UNL     1     144.965 137.579 140.645  1.00  0.00     0.004 C 
ENDBRANCH   5   6
BRANCH   5   8
ATOM      8  C   UNL     1     147.234 140.379 142.131  1.00  0.00    -0.011 C 
ATOM      9  C   UNL     1     146.975 141.198 140.857  1.00  0.00     0.008 C 
ATOM     10  C   UNL     1     148.740 140.356 142.448  1.00  0.00     0.008 C 
ENDBRANCH   5   8
ENDBRANCH   4   5
ENDBRANCH   1   3
BRANCH   1  11
ATOM     11  C   UNL     1     144.658 136.632 145.575  1.00  0.00     0.002 C 
ATOM     12  C   UNL     1     144.813 136.014 146.974  1.00  0.00     0.005 C 
ATOM     13  C   UNL     1     143.283 136.116 145.036  1.00  0.00    -0.023 C 
ATOM     14  C   UNL     1     143.899 134.789 147.016  1.00  0.00     0.009 C 
ATOM     15  C   UNL     1     143.232 134.692 145.640  1.00  0.00     0.021 C 
ATOM     16  C   UNL     1     142.087 136.961 145.551  1.00  0.00     0.008 C 
ATOM     17  C   UNL     1     143.267 136.020 143.488  1.00  0.00     0.012 C 
ATOM     18  C   UNL     1     141.842 134.066 145.720  1.00  0.00    -0.067 C 
ATOM     19  C   UNL     1     140.737 136.290 145.286  1.00  0.00     0.009 C 
ATOM     20  C   UNL     1     140.637 134.948 146.044  1.00  0.00     0.021 C 
ATOM     21  C   UNL     1     141.760 132.718 145.758  1.00  0.00    -0.027 C 
ATOM     22  C   UNL     1     139.252 134.215 145.860  1.00  0.00    -0.023 C 
ATOM     23  C   UNL     1     140.468 131.960 145.877  1.00  0.00     0.031 C 
ATOM     24  C   UNL     1     139.326 132.789 146.494  1.00  0.00     0.002 C 
ATOM     25  C   UNL     1     138.083 134.990 146.546  1.00  0.00     0.010 C 
ATOM     26  C   UNL     1     138.899 134.082 144.354  1.00  0.00     0.012 C 
ATOM     27  C   UNL     1     139.451 132.834 148.038  1.00  0.00     0.036 C 
ATOM     28  C   UNL     1     138.184 135.034 148.079  1.00  0.00     0.032 C 
ATOM     29  C   UNL     1     138.309 133.627 148.689  1.00  0.00     0.114 C 
BRANCH  29  30
ATOM     30  O   UNL     1     137.102 132.923 148.553  1.00  0.00    -0.393 OA
ATOM     31  H   UNL     1     136.424 133.570 148.226  1.00  0.00     0.210 HD
ENDBRANCH  29  30
ENDBRANCH   1  11
TORSDOF 6
ENDMDL
MODEL 9
REMARK VINA RESULT:    -6.080      3.018      9.053
REMARK INTER + INTRA:          -9.063
REMARK INTER:                  -7.913
REMARK INTRA:                  -1.150
REMARK UNBOUND:                -1.028
REMARK SMILES CC[C@H](C=C[C@H](C)[C@H]1CC[C@H]2C3=CC[C@H]4C[C@H](O)CC[C@@]4(C)[C@@H]3CC[C@@]12C)C(C)C
REMARK SMILES IDX 6 1 7 2 5 3 4 4 3 5 2 6 1 7 28 8 29 9 30 10 8 11 9 12 26 13
REMARK SMILES IDX 10 14 11 15 25 16 27 17 12 18 24 19 23 20 13 21 21 22 14 23
REMARK SMILES IDX 15 24 20 25 22 26 16 27 19 28 17 29 18 30
REMARK H PARENT 18 31
REMARK Flexibility Score: inf
ROOT
ATOM      1  C   UNL     1     138.252 143.334 141.967  1.00  0.00     0.012 C 
ATOM      2  C   UNL     1     137.492 143.729 143.239  1.00  0.00     0.012 C 
ENDROOT
BRANCH   1   3
ATOM      3  C   UNL     1     139.733 143.610 142.130  1.00  0.00    -0.028 C 
ATOM      4  C   UNL     1     140.499 142.834 142.917  1.00  0.00    -0.027 C 
BRANCH   4   5
ATOM      5  C   UNL     1     141.973 143.123 143.127  1.00  0.00     0.014 C 
BRANCH   5   6
ATOM      6  C   UNL     1     142.707 143.189 141.770  1.00  0.00     0.004 C 
ATOM      7  C   UNL     1     142.855 141.807 141.132  1.00  0.00     0.004 C 
ENDBRANCH   5   6
BRANCH   5   8
ATOM      8  C   UNL     1     142.194 144.410 143.975  1.00  0.00    -0.011 C 
ATOM      9  C   UNL     1     143.623 144.464 144.537  1.00  0.00     0.008 C 
ATOM     10  C   UNL     1     141.172 144.581 145.113  1.00  0.00     0.008 C 
ENDBRANCH   5   8
ENDBRANCH   4   5
ENDBRANCH   1   3
BRANCH   1  11
ATOM     11  C   UNL     1     137.874 141.906 141.440  1.00  0.00     0.002 C 
ATOM     12  C   UNL     1     136.638 141.309 142.132  1.00  0.00     0.005 C 
ATOM     13  C   UNL     1     137.686 141.614 139.915  1.00  0.00    -0.023 C 
ATOM     14  C   UNL     1     136.069 140.256 141.181  1.00  0.00     0.009 C 
ATOM     15  C   UNL     1     136.984 140.234 139.952  1.00  0.00     0.021 C 
ATOM     16  C   UNL     1     136.779 142.660 139.216  1.00  0.00     0.008 C 
ATOM     17  C   UNL     1     139.046 141.479 139.180  1.00  0.00     0.012 C 
ATOM     18  C   UNL     1     136.230 139.852 138.682  1.00  0.00    -0.067 C 
ATOM     19  C   UNL     1     136.344 142.218 137.816  1.00  0.00     0.009 C 
ATOM     20  C   UNL     1     135.491 140.932 137.891  1.00  0.00     0.021 C 
ATOM     21  C   UNL     1     136.024 138.539 138.443  1.00  0.00    -0.027 C 
ATOM     22  C   UNL     1     134.962 140.437 136.490  1.00  0.00    -0.023 C 
ATOM     23  C   UNL     1     135.264 138.011 137.258  1.00  0.00     0.031 C 
ATOM     24  C   UNL     1     134.289 139.036 136.650  1.00  0.00     0.002 C 
ATOM     25  C   UNL     1     133.907 141.415 135.883  1.00  0.00     0.010 C 
ATOM     26  C   UNL     1     136.130 140.324 135.472  1.00  0.00     0.012 C 
ATOM     27  C   UNL     1     132.977 139.102 137.472  1.00  0.00     0.036 C 
ATOM     28  C   UNL     1     132.594 141.483 136.678  1.00  0.00     0.032 C 
ATOM     29  C   UNL     1     131.967 140.092 136.875  1.00  0.00     0.114 C 
BRANCH  29  30
ATOM     30  O   UNL     1     131.478 139.597 135.656  1.00  0.00    -0.393 OA
ATOM     31  H   UNL     1     132.207 139.061 135.247  1.00  0.00     0.210 HD
ENDBRANCH  29  30
ENDBRANCH   1  11
TORSDOF 6
ENDMDL
