MODEL 1
REMARK VINA RESULT:    -4.298      0.000      0.000
REMARK INTER + INTRA:         -11.438
REMARK INTER:                  -8.318
REMARK INTRA:                  -3.119
REMARK UNBOUND:                -3.119
REMARK SMILES CCCCCCCCCCCCCCCCCC(=O)[O-]
REMARK SMILES IDX 10 1 11 2 12 3 13 4 14 5 15 6 16 7 17 8 18 9 19 10 20 11
REMARK SMILES IDX 9 12 8 13 7 14 6 15 5 16 4 17 3 18 2 19 1 20
REMARK H PARENT
REMARK Flexibility Score: inf
ROOT
ATOM      1  C   UNL     1      63.076  18.985  39.328  1.00  0.00     0.000 C 
ENDROOT
BRANCH   1   2
ATOM      2  C   UNL     1      63.698  17.898  40.217  1.00  0.00     0.000 C 
BRANCH   2   3
ATOM      3  C   UNL     1      62.753  16.703  40.439  1.00  0.00     0.000 C 
BRANCH   3   4
ATOM      4  C   UNL     1      63.159  15.470  39.615  1.00  0.00     0.000 C 
BRANCH   4   5
ATOM      5  C   UNL     1      62.692  15.555  38.155  1.00  0.00     0.000 C 
BRANCH   5   6
ATOM      6  C   UNL     1      63.656  14.803  37.225  1.00  0.00     0.000 C 
BRANCH   6   7
ATOM      7  C   UNL     1      64.043  15.619  35.979  1.00  0.00     0.006 C 
BRANCH   7   8
ATOM      8  C   UNL     1      64.156  17.133  36.223  1.00  0.00     0.053 C 
BRANCH   8   9
ATOM      9  C   UNL     1      65.556  17.543  36.561  1.00  0.00     0.041 C 
ATOM     10  O   UNL     1      66.027  17.308  37.705  1.00  0.00    -0.550 OA
ATOM     11  O   UNL     1      66.351  18.158  35.602  1.00  0.00    -0.550 OA
ENDBRANCH   8   9
ENDBRANCH   7   8
ENDBRANCH   6   7
ENDBRANCH   5   6
ENDBRANCH   4   5
ENDBRANCH   3   4
ENDBRANCH   2   3
ENDBRANCH   1   2
BRANCH   1  12
ATOM     12  C   UNL     1      61.546  19.070  39.479  1.00  0.00     0.000 C 
BRANCH  12  13
ATOM     13  C   UNL     1      60.814  18.826  38.142  1.00  0.00    -0.000 C 
BRANCH  13  14
ATOM     14  C   UNL     1      59.722  17.745  38.229  1.00  0.00    -0.000 C 
BRANCH  14  15
ATOM     15  C   UNL     1      59.219  17.521  39.665  1.00  0.00    -0.000 C 
BRANCH  15  16
ATOM     16  C   UNL     1      59.099  16.030  40.019  1.00  0.00    -0.000 C 
BRANCH  16  17
ATOM     17  C   UNL     1      59.003  15.133  38.772  1.00  0.00    -0.000 C 
BRANCH  17  18
ATOM     18  C   UNL     1      59.615  13.741  38.998  1.00  0.00    -0.000 C 
BRANCH  18  19
ATOM     19  C   UNL     1      60.068  13.526  40.450  1.00  0.00    -0.003 C 
ATOM     20  C   UNL     1      61.158  12.460  40.531  1.00  0.00     0.004 C 
ENDBRANCH  18  19
ENDBRANCH  17  18
ENDBRANCH  16  17
ENDBRANCH  15  16
ENDBRANCH  14  15
ENDBRANCH  13  14
ENDBRANCH  12  13
ENDBRANCH   1  12
TORSDOF 16
ENDMDL
MODEL 2
REMARK VINA RESULT:    -4.202      2.572      4.853
REMARK INTER + INTRA:         -11.251
REMARK INTER:                  -8.471
REMARK INTRA:                  -2.780
REMARK UNBOUND:                -3.119
REMARK SMILES CCCCCCCCCCCCCCCCCC(=O)[O-]
REMARK SMILES IDX 10 1 11 2 12 3 13 4 14 5 15 6 16 7 17 8 18 9 19 10 20 11
REMARK SMILES IDX 9 12 8 13 7 14 6 15 5 16 4 17 3 18 2 19 1 20
REMARK H PARENT
REMARK Flexibility Score: inf
ROOT
ATOM      1  C   UNL     1      63.652  15.935  36.583  1.00  0.00     0.000 C 
ENDROOT
BRANCH   1   2
ATOM      2  C   UNL     1      64.312  17.271  36.207  1.00  0.00     0.000 C 
BRANCH   2   3
ATOM      3  C   UNL     1      64.175  18.330  37.315  1.00  0.00     0.000 C 
BRANCH   3   4
ATOM      4  C   UNL     1      64.466  17.763  38.713  1.00  0.00     0.000 C 
BRANCH   4   5
ATOM      5  C   UNL     1      63.481  18.272  39.775  1.00  0.00     0.000 C 
BRANCH   5   6
ATOM      6  C   UNL     1      62.843  17.101  40.539  1.00  0.00     0.000 C 
BRANCH   6   7
ATOM      7  C   UNL     1      61.329  16.979  40.289  1.00  0.00     0.006 C 
BRANCH   7   8
ATOM      8  C   UNL     1      60.949  16.698  38.826  1.00  0.00     0.053 C 
BRANCH   8   9
ATOM      9  C   UNL     1      60.094  17.784  38.250  1.00  0.00     0.041 C 
ATOM     10  O   UNL     1      58.848  17.773  38.429  1.00  0.00    -0.550 OA
ATOM     11  O   UNL     1      60.678  18.826  37.540  1.00  0.00    -0.550 OA
ENDBRANCH   8   9
ENDBRANCH   7   8
ENDBRANCH   6   7
ENDBRANCH   5   6
ENDBRANCH   4   5
ENDBRANCH   3   4
ENDBRANCH   2   3
ENDBRANCH   1   2
BRANCH   1  12
ATOM     12  C   UNL     1      64.595  14.734  36.384  1.00  0.00     0.000 C 
BRANCH  12  13
ATOM     13  C   UNL     1      65.046  14.119  37.726  1.00  0.00    -0.000 C 
BRANCH  13  14
ATOM     14  C   UNL     1      63.946  14.121  38.802  1.00  0.00    -0.000 C 
BRANCH  14  15
ATOM     15  C   UNL     1      63.606  12.710  39.310  1.00  0.00    -0.000 C 
BRANCH  15  16
ATOM     16  C   UNL     1      62.357  12.692  40.205  1.00  0.00    -0.000 C 
BRANCH  16  17
ATOM     17  C   UNL     1      61.049  12.684  39.392  1.00  0.00    -0.000 C 
BRANCH  17  18
ATOM     18  C   UNL     1      61.006  11.553  38.353  1.00  0.00    -0.000 C 
BRANCH  18  19
ATOM     19  C   UNL     1      60.750  12.070  36.930  1.00  0.00    -0.003 C 
ATOM     20  C   UNL     1      60.771  13.596  36.890  1.00  0.00     0.004 C 
ENDBRANCH  18  19
ENDBRANCH  17  18
ENDBRANCH  16  17
ENDBRANCH  15  16
ENDBRANCH  14  15
ENDBRANCH  13  14
ENDBRANCH  12  13
ENDBRANCH   1  12
TORSDOF 16
ENDMDL
MODEL 3
REMARK VINA RESULT:    -4.196     11.606     14.899
REMARK INTER + INTRA:         -11.241
REMARK INTER:                  -9.038
REMARK INTRA:                  -2.203
REMARK UNBOUND:                -3.119
REMARK SMILES CCCCCCCCCCCCCCCCCC(=O)[O-]
REMARK SMILES IDX 10 1 11 2 12 3 13 4 14 5 15 6 16 7 17 8 18 9 19 10 20 11
REMARK SMILES IDX 9 12 8 13 7 14 6 15 5 16 4 17 3 18 2 19 1 20
REMARK H PARENT
REMARK Flexibility Score: inf
ROOT
ATOM      1  C   UNL     1      71.746   9.607  32.188  1.00  0.00     0.000 C 
ENDROOT
BRANCH   1   2
ATOM      2  C   UNL     1      71.238  11.041  32.407  1.00  0.00     0.000 C 
BRANCH   2   3
ATOM      3  C   UNL     1      69.822  11.258  31.847  1.00  0.00     0.000 C 
BRANCH   3   4
ATOM      4  C   UNL     1      68.727  11.002  32.895  1.00  0.00     0.000 C 
BRANCH   4   5
ATOM      5  C   UNL     1      67.970   9.689  32.650  1.00  0.00     0.000 C 
BRANCH   5   6
ATOM      6  C   UNL     1      68.340   8.636  33.706  1.00  0.00     0.000 C 
BRANCH   6   7
ATOM      7  C   UNL     1      67.961   7.206  33.281  1.00  0.00     0.006 C 
BRANCH   7   8
ATOM      8  C   UNL     1      68.375   6.117  34.285  1.00  0.00     0.053 C 
BRANCH   8   9
ATOM      9  C   UNL     1      67.242   5.721  35.181  1.00  0.00     0.041 C 
ATOM     10  O   UNL     1      66.941   6.433  36.175  1.00  0.00    -0.550 OA
ATOM     11  O   UNL     1      66.498   4.582  34.899  1.00  0.00    -0.550 OA
ENDBRANCH   8   9
ENDBRANCH   7   8
ENDBRANCH   6   7
ENDBRANCH   5   6
ENDBRANCH   4   5
ENDBRANCH   3   4
ENDBRANCH   2   3
ENDBRANCH   1   2
BRANCH   1  12
ATOM     12  C   UNL     1      72.089   8.893  33.509  1.00  0.00     0.000 C 
BRANCH  12  13
ATOM     13  C   UNL     1      71.714   7.396  33.476  1.00  0.00    -0.000 C 
BRANCH  13  14
ATOM     14  C   UNL     1      72.624   6.516  34.351  1.00  0.00    -0.000 C 
BRANCH  14  15
ATOM     15  C   UNL     1      72.900   5.139  33.727  1.00  0.00    -0.000 C 
BRANCH  15  16
ATOM     16  C   UNL     1      73.725   5.233  32.434  1.00  0.00    -0.000 C 
BRANCH  16  17
ATOM     17  C   UNL     1      75.120   5.842  32.667  1.00  0.00    -0.000 C 
BRANCH  17  18
ATOM     18  C   UNL     1      75.245   7.264  32.098  1.00  0.00    -0.000 C 
BRANCH  18  19
ATOM     19  C   UNL     1      74.442   7.453  30.803  1.00  0.00    -0.003 C 
ATOM     20  C   UNL     1      74.895   8.704  30.054  1.00  0.00     0.004 C 
ENDBRANCH  18  19
ENDBRANCH  17  18
ENDBRANCH  16  17
ENDBRANCH  15  16
ENDBRANCH  14  15
ENDBRANCH  13  14
ENDBRANCH  12  13
ENDBRANCH   1  12
TORSDOF 16
ENDMDL
MODEL 4
REMARK VINA RESULT:    -4.184      2.296      5.195
REMARK INTER + INTRA:         -11.217
REMARK INTER:                  -8.046
REMARK INTRA:                  -3.172
REMARK UNBOUND:                -3.119
REMARK SMILES CCCCCCCCCCCCCCCCCC(=O)[O-]
REMARK SMILES IDX 10 1 11 2 12 3 13 4 14 5 15 6 16 7 17 8 18 9 19 10 20 11
REMARK SMILES IDX 9 12 8 13 7 14 6 15 5 16 4 17 3 18 2 19 1 20
REMARK H PARENT
REMARK Flexibility Score: inf
ROOT
ATOM      1  C   UNL     1      60.826  18.881  37.979  1.00  0.00     0.000 C 
ENDROOT
BRANCH   1   2
ATOM      2  C   UNL     1      59.714  17.849  37.738  1.00  0.00     0.000 C 
BRANCH   2   3
ATOM      3  C   UNL     1      59.097  17.326  39.047  1.00  0.00     0.000 C 
BRANCH   3   4
ATOM      4  C   UNL     1      58.981  15.794  39.074  1.00  0.00     0.000 C 
BRANCH   4   5
ATOM      5  C   UNL     1      59.479  15.185  40.393  1.00  0.00     0.000 C 
BRANCH   5   6
ATOM      6  C   UNL     1      59.448  13.650  40.337  1.00  0.00     0.000 C 
BRANCH   6   7
ATOM      7  C   UNL     1      60.844  13.018  40.482  1.00  0.00     0.006 C 
BRANCH   7   8
ATOM      8  C   UNL     1      61.340  12.285  39.226  1.00  0.00     0.053 C 
BRANCH   8   9
ATOM      9  C   UNL     1      62.669  11.630  39.448  1.00  0.00     0.041 C 
ATOM     10  O   UNL     1      62.730  10.434  39.838  1.00  0.00    -0.550 OA
ATOM     11  O   UNL     1      63.841  12.331  39.193  1.00  0.00    -0.550 OA
ENDBRANCH   8   9
ENDBRANCH   7   8
ENDBRANCH   6   7
ENDBRANCH   5   6
ENDBRANCH   4   5
ENDBRANCH   3   4
ENDBRANCH   2   3
ENDBRANCH   1   2
BRANCH   1  12
ATOM     12  C   UNL     1      61.234  18.975  39.461  1.00  0.00     0.000 C 
BRANCH  12  13
ATOM     13  C   UNL     1      62.744  19.243  39.634  1.00  0.00    -0.000 C 
BRANCH  13  14
ATOM     14  C   UNL     1      63.494  18.099  40.339  1.00  0.00    -0.000 C 
BRANCH  14  15
ATOM     15  C   UNL     1      62.663  16.808  40.427  1.00  0.00    -0.000 C 
BRANCH  15  16
ATOM     16  C   UNL     1      63.237  15.678  39.558  1.00  0.00    -0.000 C 
BRANCH  16  17
ATOM     17  C   UNL     1      62.542  15.577  38.188  1.00  0.00    -0.000 C 
BRANCH  17  18
ATOM     18  C   UNL     1      63.529  15.688  37.015  1.00  0.00    -0.000 C 
BRANCH  18  19
ATOM     19  C   UNL     1      63.865  17.145  36.664  1.00  0.00    -0.003 C 
ATOM     20  C   UNL     1      65.301  17.485  37.054  1.00  0.00     0.004 C 
ENDBRANCH  18  19
ENDBRANCH  17  18
ENDBRANCH  16  17
ENDBRANCH  15  16
ENDBRANCH  14  15
ENDBRANCH  13  14
ENDBRANCH  12  13
ENDBRANCH   1  12
TORSDOF 16
ENDMDL
MODEL 5
REMARK VINA RESULT:    -4.138      3.046      5.615
REMARK INTER + INTRA:         -11.128
REMARK INTER:                  -8.131
REMARK INTRA:                  -2.997
REMARK UNBOUND:                -3.119
REMARK SMILES CCCCCCCCCCCCCCCCCC(=O)[O-]
REMARK SMILES IDX 10 1 11 2 12 3 13 4 14 5 15 6 16 7 17 8 18 9 19 10 20 11
REMARK SMILES IDX 9 12 8 13 7 14 6 15 5 16 4 17 3 18 2 19 1 20
REMARK H PARENT
REMARK Flexibility Score: inf
ROOT
ATOM      1  C   UNL     1      64.995  14.467  37.860  1.00  0.00     0.000 C 
ENDROOT
BRANCH   1   2
ATOM      2  C   UNL     1      64.268  13.279  38.509  1.00  0.00     0.000 C 
BRANCH   2   3
ATOM      3  C   UNL     1      63.477  13.685  39.765  1.00  0.00     0.000 C 
BRANCH   3   4
ATOM      4  C   UNL     1      63.118  15.179  39.779  1.00  0.00     0.000 C 
BRANCH   4   5
ATOM      5  C   UNL     1      61.605  15.425  39.683  1.00  0.00     0.000 C 
BRANCH   5   6
ATOM      6  C   UNL     1      61.105  15.224  38.245  1.00  0.00     0.000 C 
BRANCH   6   7
ATOM      7  C   UNL     1      60.265  13.945  38.077  1.00  0.00     0.006 C 
BRANCH   7   8
ATOM      8  C   UNL     1      60.829  12.946  37.053  1.00  0.00     0.053 C 
BRANCH   8   9
ATOM      9  C   UNL     1      60.873  11.551  37.596  1.00  0.00     0.041 C 
ATOM     10  O   UNL     1      61.020  11.355  38.831  1.00  0.00    -0.550 OA
ATOM     11  O   UNL     1      60.719  10.467  36.741  1.00  0.00    -0.550 OA
ENDBRANCH   8   9
ENDBRANCH   7   8
ENDBRANCH   6   7
ENDBRANCH   5   6
ENDBRANCH   4   5
ENDBRANCH   3   4
ENDBRANCH   2   3
ENDBRANCH   1   2
BRANCH   1  12
ATOM     12  C   UNL     1      64.552  14.709  36.405  1.00  0.00     0.000 C 
BRANCH  12  13
ATOM     13  C   UNL     1      63.961  16.120  36.204  1.00  0.00    -0.000 C 
BRANCH  13  14
ATOM     14  C   UNL     1      65.019  17.237  36.220  1.00  0.00    -0.000 C 
BRANCH  14  15
ATOM     15  C   UNL     1      64.557  18.485  36.990  1.00  0.00    -0.000 C 
BRANCH  15  16
ATOM     16  C   UNL     1      63.200  18.280  37.682  1.00  0.00    -0.000 C 
BRANCH  16  17
ATOM     17  C   UNL     1      63.203  18.771  39.142  1.00  0.00    -0.000 C 
BRANCH  17  18
ATOM     18  C   UNL     1      61.813  19.226  39.614  1.00  0.00    -0.000 C 
BRANCH  18  19
ATOM     19  C   UNL     1      60.715  18.934  38.580  1.00  0.00    -0.003 C 
ATOM     20  C   UNL     1      59.436  18.454  39.261  1.00  0.00     0.004 C 
ENDBRANCH  18  19
ENDBRANCH  17  18
ENDBRANCH  16  17
ENDBRANCH  15  16
ENDBRANCH  14  15
ENDBRANCH  13  14
ENDBRANCH  12  13
ENDBRANCH   1  12
TORSDOF 16
ENDMDL
MODEL 6
REMARK VINA RESULT:    -4.129      2.073      4.188
REMARK INTER + INTRA:         -11.110
REMARK INTER:                  -8.507
REMARK INTRA:                  -2.603
REMARK UNBOUND:                -3.119
REMARK SMILES CCCCCCCCCCCCCCCCCC(=O)[O-]
REMARK SMILES IDX 10 1 11 2 12 3 13 4 14 5 15 6 16 7 17 8 18 9 19 10 20 11
REMARK SMILES IDX 9 12 8 13 7 14 6 15 5 16 4 17 3 18 2 19 1 20
REMARK H PARENT
REMARK Flexibility Score: inf
ROOT
ATOM      1  C   UNL     1      61.356  15.181  38.474  1.00  0.00     0.000 C 
ENDROOT
BRANCH   1   2
ATOM      2  C   UNL     1      60.435  16.351  38.853  1.00  0.00     0.000 C 
BRANCH   2   3
ATOM      3  C   UNL     1      60.979  17.173  40.035  1.00  0.00     0.000 C 
BRANCH   3   4
ATOM      4  C   UNL     1      61.783  18.401  39.580  1.00  0.00     0.000 C 
BRANCH   4   5
ATOM      5  C   UNL     1      63.094  18.573  40.361  1.00  0.00     0.000 C 
BRANCH   5   6
ATOM      6  C   UNL     1      64.254  17.856  39.654  1.00  0.00     0.000 C 
BRANCH   6   7
ATOM      7  C   UNL     1      64.067  17.779  38.128  1.00  0.00     0.006 C 
BRANCH   7   8
ATOM      8  C   UNL     1      65.078  16.869  37.411  1.00  0.00     0.053 C 
BRANCH   8   9
ATOM      9  C   UNL     1      64.594  16.453  36.056  1.00  0.00     0.041 C 
ATOM     10  O   UNL     1      63.760  15.517  35.939  1.00  0.00    -0.550 OA
ATOM     11  O   UNL     1      65.042  17.122  34.923  1.00  0.00    -0.550 OA
ENDBRANCH   8   9
ENDBRANCH   7   8
ENDBRANCH   6   7
ENDBRANCH   5   6
ENDBRANCH   4   5
ENDBRANCH   3   4
ENDBRANCH   2   3
ENDBRANCH   1   2
BRANCH   1  12
ATOM     12  C   UNL     1      62.231  14.711  39.651  1.00  0.00     0.000 C 
BRANCH  12  13
ATOM     13  C   UNL     1      63.465  13.915  39.177  1.00  0.00    -0.000 C 
BRANCH  13  14
ATOM     14  C   UNL     1      63.371  12.406  39.467  1.00  0.00    -0.000 C 
BRANCH  14  15
ATOM     15  C   UNL     1      62.167  12.044  40.351  1.00  0.00    -0.000 C 
BRANCH  15  16
ATOM     16  C   UNL     1      61.279  10.959  39.721  1.00  0.00    -0.000 C 
BRANCH  16  17
ATOM     17  C   UNL     1      61.850  10.429  38.392  1.00  0.00    -0.000 C 
BRANCH  17  18
ATOM     18  C   UNL     1      60.839  10.518  37.239  1.00  0.00    -0.000 C 
BRANCH  18  19
ATOM     19  C   UNL     1      60.778  11.921  36.616  1.00  0.00    -0.003 C 
ATOM     20  C   UNL     1      59.386  12.528  36.766  1.00  0.00     0.004 C 
ENDBRANCH  18  19
ENDBRANCH  17  18
ENDBRANCH  16  17
ENDBRANCH  15  16
ENDBRANCH  14  15
ENDBRANCH  13  14
ENDBRANCH  12  13
ENDBRANCH   1  12
TORSDOF 16
ENDMDL
MODEL 7
REMARK VINA RESULT:    -4.118      1.345      1.999
REMARK INTER + INTRA:         -11.090
REMARK INTER:                  -8.001
REMARK INTRA:                  -3.089
REMARK UNBOUND:                -3.119
REMARK SMILES CCCCCCCCCCCCCCCCCC(=O)[O-]
REMARK SMILES IDX 10 1 11 2 12 3 13 4 14 5 15 6 16 7 17 8 18 9 19 10 20 11
REMARK SMILES IDX 9 12 8 13 7 14 6 15 5 16 4 17 3 18 2 19 1 20
REMARK H PARENT
REMARK Flexibility Score: inf
ROOT
ATOM      1  C   UNL     1      61.942  18.013  38.212  1.00  0.00     0.000 C 
ENDROOT
BRANCH   1   2
ATOM      2  C   UNL     1      62.785  18.337  39.455  1.00  0.00     0.000 C 
BRANCH   2   3
ATOM      3  C   UNL     1      63.038  17.102  40.337  1.00  0.00     0.000 C 
BRANCH   3   4
ATOM      4  C   UNL     1      62.545  15.801  39.685  1.00  0.00     0.000 C 
BRANCH   4   5
ATOM      5  C   UNL     1      63.485  14.615  39.946  1.00  0.00     0.000 C 
BRANCH   5   6
ATOM      6  C   UNL     1      63.694  13.788  38.668  1.00  0.00     0.000 C 
BRANCH   6   7
ATOM      7  C   UNL     1      64.818  14.342  37.774  1.00  0.00     0.006 C 
BRANCH   7   8
ATOM      8  C   UNL     1      64.326  15.008  36.479  1.00  0.00     0.053 C 
BRANCH   8   9
ATOM      9  C   UNL     1      64.698  16.458  36.417  1.00  0.00     0.041 C 
ATOM     10  O   UNL     1      64.283  17.180  35.473  1.00  0.00    -0.550 OA
ATOM     11  O   UNL     1      65.477  17.018  37.422  1.00  0.00    -0.550 OA
ENDBRANCH   8   9
ENDBRANCH   7   8
ENDBRANCH   6   7
ENDBRANCH   5   6
ENDBRANCH   4   5
ENDBRANCH   3   4
ENDBRANCH   2   3
ENDBRANCH   1   2
BRANCH   1  12
ATOM     12  C   UNL     1      60.601  18.771  38.191  1.00  0.00     0.000 C 
BRANCH  12  13
ATOM     13  C   UNL     1      60.266  19.397  39.562  1.00  0.00    -0.000 C 
BRANCH  13  14
ATOM     14  C   UNL     1      59.057  18.745  40.255  1.00  0.00    -0.000 C 
BRANCH  14  15
ATOM     15  C   UNL     1      58.554  17.491  39.520  1.00  0.00    -0.000 C 
BRANCH  15  16
ATOM     16  C   UNL     1      58.812  16.201  40.314  1.00  0.00    -0.000 C 
BRANCH  16  17
ATOM     17  C   UNL     1      59.176  15.012  39.405  1.00  0.00    -0.000 C 
BRANCH  17  18
ATOM     18  C   UNL     1      59.128  15.374  37.912  1.00  0.00    -0.000 C 
BRANCH  18  19
ATOM     19  C   UNL     1      60.295  14.766  37.121  1.00  0.00    -0.003 C 
ATOM     20  C   UNL     1      60.304  13.244  37.241  1.00  0.00     0.004 C 
ENDBRANCH  18  19
ENDBRANCH  17  18
ENDBRANCH  16  17
ENDBRANCH  15  16
ENDBRANCH  14  15
ENDBRANCH  13  14
ENDBRANCH  12  13
ENDBRANCH   1  12
TORSDOF 16
ENDMDL
MODEL 8
REMARK VINA RESULT:    -4.098      3.061      5.423
REMARK INTER + INTRA:         -11.050
REMARK INTER:                  -8.347
REMARK INTRA:                  -2.703
REMARK UNBOUND:                -3.119
REMARK SMILES CCCCCCCCCCCCCCCCCC(=O)[O-]
REMARK SMILES IDX 10 1 11 2 12 3 13 4 14 5 15 6 16 7 17 8 18 9 19 10 20 11
REMARK SMILES IDX 9 12 8 13 7 14 6 15 5 16 4 17 3 18 2 19 1 20
REMARK H PARENT
REMARK Flexibility Score: inf
ROOT
ATOM      1  C   UNL     1      62.096  18.714  39.069  1.00  0.00     0.000 C 
ENDROOT
BRANCH   1   2
ATOM      2  C   UNL     1      60.725  19.255  39.505  1.00  0.00     0.000 C 
BRANCH   2   3
ATOM      3  C   UNL     1      59.603  18.213  39.354  1.00  0.00     0.000 C 
BRANCH   3   4
ATOM      4  C   UNL     1      59.693  17.437  38.031  1.00  0.00     0.000 C 
BRANCH   4   5
ATOM      5  C   UNL     1      59.357  15.947  38.196  1.00  0.00     0.000 C 
BRANCH   5   6
ATOM      6  C   UNL     1      60.267  15.078  37.314  1.00  0.00     0.000 C 
BRANCH   6   7
ATOM      7  C   UNL     1      59.856  13.594  37.313  1.00  0.00     0.006 C 
BRANCH   7   8
ATOM      8  C   UNL     1      60.875  12.655  36.646  1.00  0.00     0.053 C 
BRANCH   8   9
ATOM      9  C   UNL     1      60.745  11.247  37.139  1.00  0.00     0.041 C 
ATOM     10  O   UNL     1      61.475  10.833  38.078  1.00  0.00    -0.550 OA
ATOM     11  O   UNL     1      59.795  10.400  36.580  1.00  0.00    -0.550 OA
ENDBRANCH   8   9
ENDBRANCH   7   8
ENDBRANCH   6   7
ENDBRANCH   5   6
ENDBRANCH   4   5
ENDBRANCH   3   4
ENDBRANCH   2   3
ENDBRANCH   1   2
BRANCH   1  12
ATOM     12  C   UNL     1      63.116  18.691  40.222  1.00  0.00     0.000 C 
BRANCH  12  13
ATOM     13  C   UNL     1      63.428  17.255  40.694  1.00  0.00    -0.000 C 
BRANCH  13  14
ATOM     14  C   UNL     1      62.698  16.170  39.884  1.00  0.00    -0.000 C 
BRANCH  14  15
ATOM     15  C   UNL     1      63.363  14.789  40.000  1.00  0.00    -0.000 C 
BRANCH  15  16
ATOM     16  C   UNL     1      63.484  14.078  38.644  1.00  0.00    -0.000 C 
BRANCH  16  17
ATOM     17  C   UNL     1      64.502  14.757  37.710  1.00  0.00    -0.000 C 
BRANCH  17  18
ATOM     18  C   UNL     1      63.833  15.458  36.517  1.00  0.00    -0.000 C 
BRANCH  18  19
ATOM     19  C   UNL     1      64.232  16.936  36.404  1.00  0.00    -0.003 C 
ATOM     20  C   UNL     1      65.314  17.291  37.420  1.00  0.00     0.004 C 
ENDBRANCH  18  19
ENDBRANCH  17  18
ENDBRANCH  16  17
ENDBRANCH  15  16
ENDBRANCH  14  15
ENDBRANCH  13  14
ENDBRANCH  12  13
ENDBRANCH   1  12
TORSDOF 16
ENDMDL
MODEL 9
REMARK VINA RESULT:    -4.085      1.143      2.647
REMARK INTER + INTRA:         -11.025
REMARK INTER:                  -7.825
REMARK INTRA:                  -3.200
REMARK UNBOUND:                -3.119
REMARK SMILES CCCCCCCCCCCCCCCCCC(=O)[O-]
REMARK SMILES IDX 10 1 11 2 12 3 13 4 14 5 15 6 16 7 17 8 18 9 19 10 20 11
REMARK SMILES IDX 9 12 8 13 7 14 6 15 5 16 4 17 3 18 2 19 1 20
REMARK H PARENT
REMARK Flexibility Score: inf
ROOT
ATOM      1  C   UNL     1      60.708  18.876  38.045  1.00  0.00     0.000 C 
ENDROOT
BRANCH   1   2
ATOM      2  C   UNL     1      61.158  18.916  39.514  1.00  0.00     0.000 C 
BRANCH   2   3
ATOM      3  C   UNL     1      62.650  19.260  39.667  1.00  0.00     0.000 C 
BRANCH   3   4
ATOM      4  C   UNL     1      63.465  18.101  40.263  1.00  0.00     0.000 C 
BRANCH   4   5
ATOM      5  C   UNL     1      62.623  16.835  40.478  1.00  0.00     0.000 C 
BRANCH   5   6
ATOM      6  C   UNL     1      63.173  15.663  39.652  1.00  0.00     0.000 C 
BRANCH   6   7
ATOM      7  C   UNL     1      62.728  15.708  38.179  1.00  0.00     0.006 C 
BRANCH   7   8
ATOM      8  C   UNL     1      63.884  15.683  37.166  1.00  0.00     0.053 C 
BRANCH   8   9
ATOM      9  C   UNL     1      64.458  17.048  36.937  1.00  0.00     0.041 C 
ATOM     10  O   UNL     1      63.735  17.972  36.481  1.00  0.00    -0.550 OA
ATOM     11  O   UNL     1      65.785  17.307  37.259  1.00  0.00    -0.550 OA
ENDBRANCH   8   9
ENDBRANCH   7   8
ENDBRANCH   6   7
ENDBRANCH   5   6
ENDBRANCH   4   5
ENDBRANCH   3   4
ENDBRANCH   2   3
ENDBRANCH   1   2
BRANCH   1  12
ATOM     12  C   UNL     1      59.678  17.764  37.772  1.00  0.00     0.000 C 
BRANCH  12  13
ATOM     13  C   UNL     1      59.167  17.111  39.074  1.00  0.00    -0.000 C 
BRANCH  13  14
ATOM     14  C   UNL     1      59.170  15.573  39.031  1.00  0.00    -0.000 C 
BRANCH  14  15
ATOM     15  C   UNL     1      59.560  14.940  40.376  1.00  0.00    -0.000 C 
BRANCH  15  16
ATOM     16  C   UNL     1      59.517  13.404  40.339  1.00  0.00    -0.000 C 
BRANCH  16  17
ATOM     17  C   UNL     1      60.890  12.769  40.627  1.00  0.00    -0.000 C 
BRANCH  17  18
ATOM     18  C   UNL     1      61.628  12.351  39.346  1.00  0.00    -0.000 C 
BRANCH  18  19
ATOM     19  C   UNL     1      60.669  11.898  38.235  1.00  0.00    -0.003 C 
ATOM     20  C   UNL     1      60.859  12.733  36.972  1.00  0.00     0.004 C 
ENDBRANCH  18  19
ENDBRANCH  17  18
ENDBRANCH  16  17
ENDBRANCH  15  16
ENDBRANCH  14  15
ENDBRANCH  13  14
ENDBRANCH  12  13
ENDBRANCH   1  12
TORSDOF 16
ENDMDL
