MODEL 1
REMARK VINA RESULT:    -7.032      0.000      0.000
REMARK INTER + INTRA:          -8.776
REMARK INTER:                  -8.471
REMARK INTRA:                  -0.305
REMARK UNBOUND:                -0.305
REMARK SMILES O=c1c(O)c(-c2ccc(O)c(O)c2)oc2cc(O)cc(O)c12
REMARK SMILES IDX 5 1 3 2 2 3 1 4 22 5 20 6 19 7 17 8 16 9 15 10 14 11 6 12
REMARK SMILES IDX 7 13 8 14 9 15 13 16 11 17 10 18 12 20 4 22 21 24 18 26
REMARK H PARENT 10 19 12 21 4 23 21 25 18 27
REMARK Flexibility Score: inf
ROOT
ATOM      1  C   UNL     1       5.117  15.735  18.727  1.00  0.00     0.180 A 
ATOM      2  C   UNL     1       4.383  16.901  18.444  1.00  0.00     0.208 A 
ATOM      3  C   UNL     1       3.847  17.072  17.157  1.00  0.00     0.238 A 
ATOM      4  O   UNL     1       3.129  18.081  16.933  1.00  0.00    -0.285 OA
ATOM      5  C   UNL     1       4.099  16.105  16.154  1.00  0.00     0.111 A 
ATOM      6  C   UNL     1       3.643  16.199  14.804  1.00  0.00     0.134 A 
ATOM      7  C   UNL     1       3.862  15.129  13.926  1.00  0.00     0.093 A 
ATOM      8  C   UNL     1       4.573  14.001  14.329  1.00  0.00     0.123 A 
ATOM      9  C   UNL     1       5.071  13.922  15.630  1.00  0.00     0.094 A 
ATOM     10  C   UNL     1       4.836  14.955  16.540  1.00  0.00     0.146 A 
ATOM     11  O   UNL     1       5.309  14.831  17.774  1.00  0.00    -0.452 OA
ENDROOT
BRANCH   1  12
ATOM     12  C   UNL     1       5.700  15.476  20.063  1.00  0.00     0.025 A 
ATOM     13  C   UNL     1       4.887  14.952  21.081  1.00  0.00     0.016 A 
ATOM     14  C   UNL     1       5.411  14.720  22.355  1.00  0.00     0.051 A 
ATOM     15  C   UNL     1       6.750  15.021  22.635  1.00  0.00     0.157 A 
ATOM     16  C   UNL     1       7.038  15.797  20.353  1.00  0.00     0.062 A 
ATOM     17  C   UNL     1       7.565  15.567  21.629  1.00  0.00     0.158 A 
BRANCH  15  18
ATOM     18  O   UNL     1       7.270  14.786  23.906  1.00  0.00    -0.504 OA
ATOM     19  H   UNL     1       8.180  14.359  24.037  1.00  0.00     0.293 HD
ENDBRANCH  15  18
BRANCH  17  20
ATOM     20  O   UNL     1       8.898  15.892  21.880  1.00  0.00    -0.504 OA
ATOM     21  H   UNL     1       9.592  15.927  21.143  1.00  0.00     0.293 HD
ENDBRANCH  17  20
ENDBRANCH   1  12
BRANCH   2  22
ATOM     22  O   UNL     1       4.211  17.880  19.426  1.00  0.00    -0.502 OA
ATOM     23  H   UNL     1       4.986  18.272  19.947  1.00  0.00     0.293 HD
ENDBRANCH   2  22
BRANCH   6  24
ATOM     24  O   UNL     1       2.998  17.319  14.270  1.00  0.00    -0.507 OA
ATOM     25  H   UNL     1       2.134  17.296  13.753  1.00  0.00     0.293 HD
ENDBRANCH   6  24
BRANCH   8  26
ATOM     26  O   UNL     1       4.788  12.964  13.423  1.00  0.00    -0.508 OA
ATOM     27  H   UNL     1       4.242  12.881  12.573  1.00  0.00     0.293 HD
ENDBRANCH   8  26
TORSDOF 6
ENDMDL
MODEL 2
REMARK VINA RESULT:    -6.988      1.301      3.025
REMARK INTER + INTRA:          -8.723
REMARK INTER:                  -8.394
REMARK INTRA:                  -0.329
REMARK UNBOUND:                -0.305
REMARK SMILES O=c1c(O)c(-c2ccc(O)c(O)c2)oc2cc(O)cc(O)c12
REMARK SMILES IDX 5 1 3 2 2 3 1 4 22 5 20 6 19 7 17 8 16 9 15 10 14 11 6 12
REMARK SMILES IDX 7 13 8 14 9 15 13 16 11 17 10 18 12 20 4 22 21 24 18 26
REMARK H PARENT 10 19 12 21 4 23 21 25 18 27
REMARK Flexibility Score: inf
ROOT
ATOM      1  C   UNL     1       5.494  15.799  18.631  1.00  0.00     0.180 A 
ATOM      2  C   UNL     1       5.493  14.827  17.615  1.00  0.00     0.208 A 
ATOM      3  C   UNL     1       5.019  15.177  16.340  1.00  0.00     0.238 A 
ATOM      4  O   UNL     1       5.091  14.325  15.416  1.00  0.00    -0.285 OA
ATOM      5  C   UNL     1       4.500  16.474  16.111  1.00  0.00     0.111 A 
ATOM      6  C   UNL     1       3.951  16.922  14.871  1.00  0.00     0.134 A 
ATOM      7  C   UNL     1       3.564  18.261  14.731  1.00  0.00     0.093 A 
ATOM      8  C   UNL     1       3.644  19.149  15.801  1.00  0.00     0.123 A 
ATOM      9  C   UNL     1       4.127  18.709  17.034  1.00  0.00     0.094 A 
ATOM     10  C   UNL     1       4.557  17.390  17.194  1.00  0.00     0.146 A 
ATOM     11  O   UNL     1       5.030  17.017  18.377  1.00  0.00    -0.452 OA
ENDROOT
BRANCH   1  12
ATOM     12  C   UNL     1       5.991  15.512  19.995  1.00  0.00     0.025 A 
ATOM     13  C   UNL     1       5.096  15.046  20.972  1.00  0.00     0.016 A 
ATOM     14  C   UNL     1       5.539  14.789  22.272  1.00  0.00     0.051 A 
ATOM     15  C   UNL     1       6.878  15.008  22.620  1.00  0.00     0.157 A 
ATOM     16  C   UNL     1       7.330  15.750  20.353  1.00  0.00     0.062 A 
ATOM     17  C   UNL     1       7.776  15.495  21.655  1.00  0.00     0.158 A 
BRANCH  15  18
ATOM     18  O   UNL     1       7.317  14.748  23.916  1.00  0.00    -0.504 OA
ATOM     19  H   UNL     1       6.846  15.137  24.725  1.00  0.00     0.293 HD
ENDBRANCH  15  18
BRANCH  17  20
ATOM     20  O   UNL     1       9.112  15.738  21.973  1.00  0.00    -0.504 OA
ATOM     21  H   UNL     1       9.874  15.324  21.450  1.00  0.00     0.293 HD
ENDBRANCH  17  20
ENDBRANCH   1  12
BRANCH   2  22
ATOM     22  O   UNL     1       5.940  13.530  17.881  1.00  0.00    -0.502 OA
ATOM     23  H   UNL     1       6.923  13.290  17.919  1.00  0.00     0.293 HD
ENDBRANCH   2  22
BRANCH   6  24
ATOM     24  O   UNL     1       3.743  16.095  13.762  1.00  0.00    -0.507 OA
ATOM     25  H   UNL     1       3.670  16.415  12.809  1.00  0.00     0.293 HD
ENDBRANCH   6  24
BRANCH   8  26
ATOM     26  O   UNL     1       3.234  20.470  15.631  1.00  0.00    -0.508 OA
ATOM     27  H   UNL     1       2.292  20.698  15.335  1.00  0.00     0.293 HD
ENDBRANCH   8  26
TORSDOF 6
ENDMDL
MODEL 3
REMARK VINA RESULT:    -6.914      1.316      2.978
REMARK INTER + INTRA:          -8.633
REMARK INTER:                  -8.316
REMARK INTRA:                  -0.317
REMARK UNBOUND:                -0.305
REMARK SMILES O=c1c(O)c(-c2ccc(O)c(O)c2)oc2cc(O)cc(O)c12
REMARK SMILES IDX 5 1 3 2 2 3 1 4 22 5 20 6 19 7 17 8 16 9 15 10 14 11 6 12
REMARK SMILES IDX 7 13 8 14 9 15 13 16 11 17 10 18 12 20 4 22 21 24 18 26
REMARK H PARENT 10 19 12 21 4 23 21 25 18 27
REMARK Flexibility Score: inf
ROOT
ATOM      1  C   UNL     1       5.542  14.440  18.232  1.00  0.00     0.180 A 
ATOM      2  C   UNL     1       5.747  13.208  17.586  1.00  0.00     0.208 A 
ATOM      3  C   UNL     1       5.410  13.088  16.228  1.00  0.00     0.238 A 
ATOM      4  O   UNL     1       5.666  12.006  15.637  1.00  0.00    -0.285 OA
ATOM      5  C   UNL     1       4.819  14.181  15.548  1.00  0.00     0.111 A 
ATOM      6  C   UNL     1       4.396  14.155  14.184  1.00  0.00     0.134 A 
ATOM      7  C   UNL     1       3.922  15.331  13.587  1.00  0.00     0.093 A 
ATOM      8  C   UNL     1       3.796  16.510  14.318  1.00  0.00     0.123 A 
ATOM      9  C   UNL     1       4.155  16.532  15.667  1.00  0.00     0.094 A 
ATOM     10  C   UNL     1       4.667  15.387  16.281  1.00  0.00     0.146 A 
ATOM     11  O   UNL     1       5.016  15.457  17.559  1.00  0.00    -0.452 OA
ENDROOT
BRANCH   1  12
ATOM     12  C   UNL     1       5.886  14.649  19.656  1.00  0.00     0.025 A 
ATOM     13  C   UNL     1       4.951  14.313  20.649  1.00  0.00     0.016 A 
ATOM     14  C   UNL     1       5.246  14.522  21.999  1.00  0.00     0.051 A 
ATOM     15  C   UNL     1       6.473  15.084  22.376  1.00  0.00     0.157 A 
ATOM     16  C   UNL     1       7.108  15.232  20.038  1.00  0.00     0.062 A 
ATOM     17  C   UNL     1       7.406  15.444  21.388  1.00  0.00     0.158 A 
BRANCH  15  18
ATOM     18  O   UNL     1       6.765  15.288  23.722  1.00  0.00    -0.504 OA
ATOM     19  H   UNL     1       6.049  15.557  24.387  1.00  0.00     0.293 HD
ENDBRANCH  15  18
BRANCH  17  20
ATOM     20  O   UNL     1       8.629  16.019  21.730  1.00  0.00    -0.504 OA
ATOM     21  H   UNL     1       9.113  15.786  22.589  1.00  0.00     0.293 HD
ENDBRANCH  17  20
ENDBRANCH   1  12
BRANCH   2  22
ATOM     22  O   UNL     1       6.260  12.119  18.294  1.00  0.00    -0.502 OA
ATOM     23  H   UNL     1       6.885  12.228  19.084  1.00  0.00     0.293 HD
ENDBRANCH   2  22
BRANCH   6  24
ATOM     24  O   UNL     1       4.396  13.008  13.385  1.00  0.00    -0.507 OA
ATOM     25  H   UNL     1       3.582  12.615  12.940  1.00  0.00     0.293 HD
ENDBRANCH   6  24
BRANCH   8  26
ATOM     26  O   UNL     1       3.304  17.656  13.696  1.00  0.00    -0.508 OA
ATOM     27  H   UNL     1       3.248  18.542  14.184  1.00  0.00     0.293 HD
ENDBRANCH   8  26
TORSDOF 6
ENDMDL
MODEL 4
REMARK VINA RESULT:    -6.803      1.454      3.226
REMARK INTER + INTRA:          -8.500
REMARK INTER:                  -8.190
REMARK INTRA:                  -0.310
REMARK UNBOUND:                -0.305
REMARK SMILES O=c1c(O)c(-c2ccc(O)c(O)c2)oc2cc(O)cc(O)c12
REMARK SMILES IDX 5 1 3 2 2 3 1 4 22 5 20 6 19 7 17 8 16 9 15 10 14 11 6 12
REMARK SMILES IDX 7 13 8 14 9 15 13 16 11 17 10 18 12 20 4 22 21 24 18 26
REMARK H PARENT 10 19 12 21 4 23 21 25 18 27
REMARK Flexibility Score: inf
ROOT
ATOM      1  C   UNL     1       5.447  15.456  18.376  1.00  0.00     0.180 A 
ATOM      2  C   UNL     1       5.470  14.364  17.490  1.00  0.00     0.208 A 
ATOM      3  C   UNL     1       5.082  14.563  16.155  1.00  0.00     0.238 A 
ATOM      4  O   UNL     1       5.177  13.599  15.351  1.00  0.00    -0.285 OA
ATOM      5  C   UNL     1       4.622  15.834  15.736  1.00  0.00     0.111 A 
ATOM      6  C   UNL     1       4.161  16.136  14.418  1.00  0.00     0.134 A 
ATOM      7  C   UNL     1       3.829  17.457  14.090  1.00  0.00     0.093 A 
ATOM      8  C   UNL     1       3.880  18.471  15.043  1.00  0.00     0.123 A 
ATOM      9  C   UNL     1       4.276  18.177  16.349  1.00  0.00     0.094 A 
ATOM     10  C   UNL     1       4.650  16.877  16.698  1.00  0.00     0.146 A 
ATOM     11  O   UNL     1       5.041  16.645  17.945  1.00  0.00    -0.452 OA
ENDROOT
BRANCH   1  12
ATOM     12  C   UNL     1       5.856  15.330  19.793  1.00  0.00     0.025 A 
ATOM     13  C   UNL     1       7.218  15.393  20.126  1.00  0.00     0.016 A 
ATOM     14  C   UNL     1       7.629  15.255  21.455  1.00  0.00     0.051 A 
ATOM     15  C   UNL     1       6.685  15.038  22.467  1.00  0.00     0.157 A 
ATOM     16  C   UNL     1       4.914  15.092  20.809  1.00  0.00     0.062 A 
ATOM     17  C   UNL     1       5.321  14.952  22.140  1.00  0.00     0.158 A 
BRANCH  15  18
ATOM     18  O   UNL     1       7.097  14.903  23.791  1.00  0.00    -0.504 OA
ATOM     19  H   UNL     1       6.931  14.052  24.316  1.00  0.00     0.293 HD
ENDBRANCH  15  18
BRANCH  17  20
ATOM     20  O   UNL     1       4.359  14.721  23.123  1.00  0.00    -0.504 OA
ATOM     21  H   UNL     1       4.395  13.913  23.733  1.00  0.00     0.293 HD
ENDBRANCH  17  20
ENDBRANCH   1  12
BRANCH   2  22
ATOM     22  O   UNL     1       5.855  13.099  17.942  1.00  0.00    -0.502 OA
ATOM     23  H   UNL     1       6.392  12.964  18.791  1.00  0.00     0.293 HD
ENDBRANCH   2  22
BRANCH   6  24
ATOM     24  O   UNL     1       3.987  15.183  13.410  1.00  0.00    -0.507 OA
ATOM     25  H   UNL     1       3.610  15.372  12.495  1.00  0.00     0.293 HD
ENDBRANCH   6  24
BRANCH   8  26
ATOM     26  O   UNL     1       3.525  19.771  14.685  1.00  0.00    -0.508 OA
ATOM     27  H   UNL     1       4.183  20.539  14.757  1.00  0.00     0.293 HD
ENDBRANCH   8  26
TORSDOF 6
ENDMDL
MODEL 5
REMARK VINA RESULT:    -6.647      2.053      6.960
REMARK INTER + INTRA:          -8.312
REMARK INTER:                  -7.981
REMARK INTRA:                  -0.331
REMARK UNBOUND:                -0.305
REMARK SMILES O=c1c(O)c(-c2ccc(O)c(O)c2)oc2cc(O)cc(O)c12
REMARK SMILES IDX 5 1 3 2 2 3 1 4 22 5 20 6 19 7 17 8 16 9 15 10 14 11 6 12
REMARK SMILES IDX 7 13 8 14 9 15 13 16 11 17 10 18 12 20 4 22 21 24 18 26
REMARK H PARENT 10 19 12 21 4 23 21 25 18 27
REMARK Flexibility Score: inf
ROOT
ATOM      1  C   UNL     1       4.494  16.602  18.466  1.00  0.00     0.180 A 
ATOM      2  C   UNL     1       3.458  15.906  19.113  1.00  0.00     0.208 A 
ATOM      3  C   UNL     1       3.699  15.353  20.382  1.00  0.00     0.238 A 
ATOM      4  O   UNL     1       2.746  14.796  20.987  1.00  0.00    -0.285 OA
ATOM      5  C   UNL     1       4.987  15.452  20.961  1.00  0.00     0.111 A 
ATOM      6  C   UNL     1       5.355  14.889  22.222  1.00  0.00     0.134 A 
ATOM      7  C   UNL     1       6.630  15.142  22.744  1.00  0.00     0.093 A 
ATOM      8  C   UNL     1       7.569  15.882  22.027  1.00  0.00     0.123 A 
ATOM      9  C   UNL     1       7.238  16.390  20.770  1.00  0.00     0.094 A 
ATOM     10  C   UNL     1       5.962  16.187  20.239  1.00  0.00     0.146 A 
ATOM     11  O   UNL     1       5.682  16.707  19.050  1.00  0.00    -0.452 OA
ENDROOT
BRANCH   1  12
ATOM     12  C   UNL     1       4.313  17.226  17.136  1.00  0.00     0.025 A 
ATOM     13  C   UNL     1       4.644  16.497  15.982  1.00  0.00     0.016 A 
ATOM     14  C   UNL     1       4.501  17.073  14.717  1.00  0.00     0.051 A 
ATOM     15  C   UNL     1       4.041  18.390  14.587  1.00  0.00     0.157 A 
ATOM     16  C   UNL     1       3.871  18.554  17.003  1.00  0.00     0.062 A 
ATOM     17  C   UNL     1       3.729  19.135  15.738  1.00  0.00     0.158 A 
BRANCH  15  18
ATOM     18  O   UNL     1       3.898  18.961  13.324  1.00  0.00    -0.504 OA
ATOM     19  H   UNL     1       3.132  18.708  12.710  1.00  0.00     0.293 HD
ENDBRANCH  15  18
BRANCH  17  20
ATOM     20  O   UNL     1       3.284  20.453  15.643  1.00  0.00    -0.504 OA
ATOM     21  H   UNL     1       3.414  21.121  16.394  1.00  0.00     0.293 HD
ENDBRANCH  17  20
ENDBRANCH   1  12
BRANCH   2  22
ATOM     22  O   UNL     1       2.217  15.753  18.491  1.00  0.00    -0.502 OA
ATOM     23  H   UNL     1       2.092  15.861  17.492  1.00  0.00     0.293 HD
ENDBRANCH   2  22
BRANCH   6  24
ATOM     24  O   UNL     1       4.525  14.060  22.983  1.00  0.00    -0.507 OA
ATOM     25  H   UNL     1       4.838  13.272  23.527  1.00  0.00     0.293 HD
ENDBRANCH   6  24
BRANCH   8  26
ATOM     26  O   UNL     1       8.833  16.099  22.570  1.00  0.00    -0.508 OA
ATOM     27  H   UNL     1       9.670  16.059  22.000  1.00  0.00     0.293 HD
ENDBRANCH   8  26
TORSDOF 6
ENDMDL
MODEL 6
REMARK VINA RESULT:    -6.596      1.774      6.960
REMARK INTER + INTRA:          -8.250
REMARK INTER:                  -7.986
REMARK INTRA:                  -0.264
REMARK UNBOUND:                -0.305
REMARK SMILES O=c1c(O)c(-c2ccc(O)c(O)c2)oc2cc(O)cc(O)c12
REMARK SMILES IDX 5 1 3 2 2 3 1 4 22 5 20 6 19 7 17 8 16 9 15 10 14 11 6 12
REMARK SMILES IDX 7 13 8 14 9 15 13 16 11 17 10 18 12 20 4 22 21 24 18 26
REMARK H PARENT 10 19 12 21 4 23 21 25 18 27
REMARK Flexibility Score: inf
ROOT
ATOM      1  C   UNL     1       4.370  16.723  18.260  1.00  0.00     0.180 A 
ATOM      2  C   UNL     1       3.320  16.068  18.928  1.00  0.00     0.208 A 
ATOM      3  C   UNL     1       3.567  15.495  20.187  1.00  0.00     0.238 A 
ATOM      4  O   UNL     1       2.605  14.976  20.811  1.00  0.00    -0.285 OA
ATOM      5  C   UNL     1       4.872  15.533  20.735  1.00  0.00     0.111 A 
ATOM      6  C   UNL     1       5.246  14.944  21.982  1.00  0.00     0.134 A 
ATOM      7  C   UNL     1       6.543  15.137  22.474  1.00  0.00     0.093 A 
ATOM      8  C   UNL     1       7.495  15.840  21.739  1.00  0.00     0.123 A 
ATOM      9  C   UNL     1       7.157  16.372  20.494  1.00  0.00     0.094 A 
ATOM     10  C   UNL     1       5.861  16.230  19.994  1.00  0.00     0.146 A 
ATOM     11  O   UNL     1       5.575  16.771  18.815  1.00  0.00    -0.452 OA
ENDROOT
BRANCH   1  12
ATOM     12  C   UNL     1       4.184  17.365  16.940  1.00  0.00     0.025 A 
ATOM     13  C   UNL     1       4.054  18.761  16.863  1.00  0.00     0.016 A 
ATOM     14  C   UNL     1       3.856  19.386  15.629  1.00  0.00     0.051 A 
ATOM     15  C   UNL     1       3.771  18.625  14.456  1.00  0.00     0.157 A 
ATOM     16  C   UNL     1       4.078  16.603  15.763  1.00  0.00     0.062 A 
ATOM     17  C   UNL     1       3.879  17.225  14.526  1.00  0.00     0.158 A 
BRANCH  15  18
ATOM     18  O   UNL     1       3.577  19.251  13.227  1.00  0.00    -0.504 OA
ATOM     19  H   UNL     1       2.825  19.916  13.082  1.00  0.00     0.293 HD
ENDBRANCH  15  18
BRANCH  17  20
ATOM     20  O   UNL     1       3.783  16.438  13.378  1.00  0.00    -0.504 OA
ATOM     21  H   UNL     1       3.067  15.730  13.269  1.00  0.00     0.293 HD
ENDBRANCH  17  20
ENDBRANCH   1  12
BRANCH   2  22
ATOM     22  O   UNL     1       2.058  15.975  18.336  1.00  0.00    -0.502 OA
ATOM     23  H   UNL     1       1.881  15.401  17.520  1.00  0.00     0.293 HD
ENDBRANCH   2  22
BRANCH   6  24
ATOM     24  O   UNL     1       4.398  14.146  22.757  1.00  0.00    -0.507 OA
ATOM     25  H   UNL     1       4.704  13.418  23.383  1.00  0.00     0.293 HD
ENDBRANCH   6  24
BRANCH   8  26
ATOM     26  O   UNL     1       8.781  15.997  22.253  1.00  0.00    -0.508 OA
ATOM     27  H   UNL     1       8.956  16.546  23.086  1.00  0.00     0.293 HD
ENDBRANCH   8  26
TORSDOF 6
ENDMDL
MODEL 7
REMARK VINA RESULT:    -6.438      3.068      5.721
REMARK INTER + INTRA:          -8.061
REMARK INTER:                  -7.872
REMARK INTRA:                  -0.189
REMARK UNBOUND:                -0.305
REMARK SMILES O=c1c(O)c(-c2ccc(O)c(O)c2)oc2cc(O)cc(O)c12
REMARK SMILES IDX 5 1 3 2 2 3 1 4 22 5 20 6 19 7 17 8 16 9 15 10 14 11 6 12
REMARK SMILES IDX 7 13 8 14 9 15 13 16 11 17 10 18 12 20 4 22 21 24 18 26
REMARK H PARENT 10 19 12 21 4 23 21 25 18 27
REMARK Flexibility Score: inf
ROOT
ATOM      1  C   UNL     1       3.733  17.607  16.165  1.00  0.00     0.180 A 
ATOM      2  C   UNL     1       3.640  17.269  14.803  1.00  0.00     0.208 A 
ATOM      3  C   UNL     1       3.975  15.966  14.401  1.00  0.00     0.238 A 
ATOM      4  O   UNL     1       3.818  15.650  13.193  1.00  0.00    -0.285 OA
ATOM      5  C   UNL     1       4.454  15.035  15.353  1.00  0.00     0.111 A 
ATOM      6  C   UNL     1       4.866  13.701  15.049  1.00  0.00     0.134 A 
ATOM      7  C   UNL     1       5.221  12.834  16.090  1.00  0.00     0.093 A 
ATOM      8  C   UNL     1       5.241  13.269  17.414  1.00  0.00     0.123 A 
ATOM      9  C   UNL     1       4.894  14.586  17.717  1.00  0.00     0.094 A 
ATOM     10  C   UNL     1       4.498  15.463  16.706  1.00  0.00     0.146 A 
ATOM     11  O   UNL     1       4.154  16.701  17.040  1.00  0.00    -0.452 OA
ENDROOT
BRANCH   1  12
ATOM     12  C   UNL     1       3.383  18.953  16.669  1.00  0.00     0.025 A 
ATOM     13  C   UNL     1       2.237  19.116  17.464  1.00  0.00     0.016 A 
ATOM     14  C   UNL     1       1.875  20.382  17.933  1.00  0.00     0.051 A 
ATOM     15  C   UNL     1       2.645  21.505  17.603  1.00  0.00     0.157 A 
ATOM     16  C   UNL     1       4.142  20.086  16.324  1.00  0.00     0.062 A 
ATOM     17  C   UNL     1       3.782  21.355  16.790  1.00  0.00     0.158 A 
BRANCH  15  18
ATOM     18  O   UNL     1       2.283  22.765  18.074  1.00  0.00    -0.504 OA
ATOM     19  H   UNL     1       1.347  22.958  18.410  1.00  0.00     0.293 HD
ENDBRANCH  15  18
BRANCH  17  20
ATOM     20  O   UNL     1       4.560  22.455  16.431  1.00  0.00    -0.504 OA
ATOM     21  H   UNL     1       5.562  22.478  16.580  1.00  0.00     0.293 HD
ENDBRANCH  17  20
ENDBRANCH   1  12
BRANCH   2  22
ATOM     22  O   UNL     1       3.238  18.226  13.867  1.00  0.00    -0.502 OA
ATOM     23  H   UNL     1       3.133  19.206  14.101  1.00  0.00     0.293 HD
ENDBRANCH   2  22
BRANCH   6  24
ATOM     24  O   UNL     1       4.968  13.189  13.751  1.00  0.00    -0.507 OA
ATOM     25  H   UNL     1       4.796  12.231  13.494  1.00  0.00     0.293 HD
ENDBRANCH   6  24
BRANCH   8  26
ATOM     26  O   UNL     1       5.617  12.383  18.422  1.00  0.00    -0.508 OA
ATOM     27  H   UNL     1       5.734  11.393  18.242  1.00  0.00     0.293 HD
ENDBRANCH   8  26
TORSDOF 6
ENDMDL
MODEL 8
REMARK VINA RESULT:    -6.316      2.093      6.890
REMARK INTER + INTRA:          -7.913
REMARK INTER:                  -7.662
REMARK INTRA:                  -0.251
REMARK UNBOUND:                -0.305
REMARK SMILES O=c1c(O)c(-c2ccc(O)c(O)c2)oc2cc(O)cc(O)c12
REMARK SMILES IDX 5 1 3 2 2 3 1 4 22 5 20 6 19 7 17 8 16 9 15 10 14 11 6 12
REMARK SMILES IDX 7 13 8 14 9 15 13 16 11 17 10 18 12 20 4 22 21 24 18 26
REMARK H PARENT 10 19 12 21 4 23 21 25 18 27
REMARK Flexibility Score: inf
ROOT
ATOM      1  C   UNL     1       4.898  16.657  18.090  1.00  0.00     0.180 A 
ATOM      2  C   UNL     1       6.153  16.763  18.716  1.00  0.00     0.208 A 
ATOM      3  C   UNL     1       6.330  16.196  19.988  1.00  0.00     0.238 A 
ATOM      4  O   UNL     1       7.475  16.229  20.509  1.00  0.00    -0.285 OA
ATOM      5  C   UNL     1       5.236  15.580  20.643  1.00  0.00     0.111 A 
ATOM      6  C   UNL     1       5.290  15.012  21.953  1.00  0.00     0.134 A 
ATOM      7  C   UNL     1       4.172  14.334  22.457  1.00  0.00     0.093 A 
ATOM      8  C   UNL     1       2.986  14.259  21.729  1.00  0.00     0.123 A 
ATOM      9  C   UNL     1       2.905  14.857  20.472  1.00  0.00     0.094 A 
ATOM     10  C   UNL     1       4.014  15.507  19.925  1.00  0.00     0.146 A 
ATOM     11  O   UNL     1       3.901  16.044  18.716  1.00  0.00    -0.452 OA
ENDROOT
BRANCH   1  12
ATOM     12  C   UNL     1       4.639  17.215  16.744  1.00  0.00     0.025 A 
ATOM     13  C   UNL     1       4.480  18.602  16.592  1.00  0.00     0.016 A 
ATOM     14  C   UNL     1       4.213  19.150  15.334  1.00  0.00     0.051 A 
ATOM     15  C   UNL     1       4.087  18.319  14.214  1.00  0.00     0.157 A 
ATOM     16  C   UNL     1       4.491  16.383  15.620  1.00  0.00     0.062 A 
ATOM     17  C   UNL     1       4.222  16.928  14.360  1.00  0.00     0.158 A 
BRANCH  15  18
ATOM     18  O   UNL     1       3.823  18.868  12.960  1.00  0.00    -0.504 OA
ATOM     19  H   UNL     1       3.484  19.818  12.857  1.00  0.00     0.293 HD
ENDBRANCH  15  18
BRANCH  17  20
ATOM     20  O   UNL     1       4.087  16.072  13.267  1.00  0.00    -0.504 OA
ATOM     21  H   UNL     1       3.748  16.396  12.369  1.00  0.00     0.293 HD
ENDBRANCH  17  20
ENDBRANCH   1  12
BRANCH   2  22
ATOM     22  O   UNL     1       7.199  17.442  18.085  1.00  0.00    -0.502 OA
ATOM     23  H   UNL     1       7.041  18.142  17.370  1.00  0.00     0.293 HD
ENDBRANCH   2  22
BRANCH   6  24
ATOM     24  O   UNL     1       6.396  15.106  22.804  1.00  0.00    -0.507 OA
ATOM     25  H   UNL     1       6.487  15.764  23.561  1.00  0.00     0.293 HD
ENDBRANCH   6  24
BRANCH   8  26
ATOM     26  O   UNL     1       1.889  13.591  22.270  1.00  0.00    -0.508 OA
ATOM     27  H   UNL     1       0.985  13.601  21.814  1.00  0.00     0.293 HD
ENDBRANCH   8  26
TORSDOF 6
ENDMDL
MODEL 9
REMARK VINA RESULT:    -6.191      3.465      4.209
REMARK INTER + INTRA:          -7.763
REMARK INTER:                  -7.507
REMARK INTRA:                  -0.256
REMARK UNBOUND:                -0.305
REMARK SMILES O=c1c(O)c(-c2ccc(O)c(O)c2)oc2cc(O)cc(O)c12
REMARK SMILES IDX 5 1 3 2 2 3 1 4 22 5 20 6 19 7 17 8 16 9 15 10 14 11 6 12
REMARK SMILES IDX 7 13 8 14 9 15 13 16 11 17 10 18 12 20 4 22 21 24 18 26
REMARK H PARENT 10 19 12 21 4 23 21 25 18 27
REMARK Flexibility Score: inf
ROOT
ATOM      1  C   UNL     1       4.102  15.112  16.394  1.00  0.00     0.180 A 
ATOM      2  C   UNL     1       4.009  16.254  17.210  1.00  0.00     0.208 A 
ATOM      3  C   UNL     1       3.852  17.511  16.604  1.00  0.00     0.238 A 
ATOM      4  O   UNL     1       3.694  18.519  17.341  1.00  0.00    -0.285 OA
ATOM      5  C   UNL     1       3.848  17.619  15.192  1.00  0.00     0.111 A 
ATOM      6  C   UNL     1       3.741  18.848  14.472  1.00  0.00     0.134 A 
ATOM      7  C   UNL     1       3.641  18.822  13.075  1.00  0.00     0.093 A 
ATOM      8  C   UNL     1       3.709  17.622  12.370  1.00  0.00     0.123 A 
ATOM      9  C   UNL     1       3.869  16.420  13.060  1.00  0.00     0.094 A 
ATOM     10  C   UNL     1       3.933  16.409  14.455  1.00  0.00     0.146 A 
ATOM     11  O   UNL     1       4.063  15.242  15.073  1.00  0.00    -0.452 OA
ENDROOT
BRANCH   1  12
ATOM     12  C   UNL     1       4.254  13.752  16.958  1.00  0.00     0.025 A 
ATOM     13  C   UNL     1       3.152  13.132  17.570  1.00  0.00     0.016 A 
ATOM     14  C   UNL     1       3.277  11.857  18.127  1.00  0.00     0.051 A 
ATOM     15  C   UNL     1       4.508  11.189  18.095  1.00  0.00     0.157 A 
ATOM     16  C   UNL     1       5.492  13.086  16.945  1.00  0.00     0.062 A 
ATOM     17  C   UNL     1       5.622  11.810  17.504  1.00  0.00     0.158 A 
BRANCH  15  18
ATOM     18  O   UNL     1       4.630   9.916  18.650  1.00  0.00    -0.504 OA
ATOM     19  H   UNL     1       4.831   9.105  18.077  1.00  0.00     0.293 HD
ENDBRANCH  15  18
BRANCH  17  20
ATOM     20  O   UNL     1       6.864  11.178  17.470  1.00  0.00    -0.504 OA
ATOM     21  H   UNL     1       7.259  10.813  16.611  1.00  0.00     0.293 HD
ENDBRANCH  17  20
ENDBRANCH   1  12
BRANCH   2  22
ATOM     22  O   UNL     1       4.091  16.135  18.599  1.00  0.00    -0.502 OA
ATOM     23  H   UNL     1       4.539  16.834  19.180  1.00  0.00     0.293 HD
ENDBRANCH   2  22
BRANCH   6  24
ATOM     24  O   UNL     1       3.754  20.111  15.072  1.00  0.00    -0.507 OA
ATOM     25  H   UNL     1       3.154  20.397  15.829  1.00  0.00     0.293 HD
ENDBRANCH   6  24
BRANCH   8  26
ATOM     26  O   UNL     1       3.624  17.637  10.979  1.00  0.00    -0.508 OA
ATOM     27  H   UNL     1       4.282  17.127  10.402  1.00  0.00     0.293 HD
ENDBRANCH   8  26
TORSDOF 6
ENDMDL
