MODEL 1
REMARK VINA RESULT:    -1.450      0.000      0.000
REMARK INTER + INTRA:          -1.373
REMARK INTER:                  -2.129
REMARK INTRA:                   0.755
REMARK UNBOUND:                 0.755
REMARK SMILES O=c1c(O[C@@H]2O[C@H](CO)[C@H](O)[C@@H](O)[C@@H]2O)c(-c2ccc(O)c(O)c2)oc2cc(O)cc(O)c12
REMARK SMILES IDX 4 1 3 2 16 3 25 4 2 5 26 6 1 7 33 8 27 9 31 10 28 11 30 12
REMARK SMILES IDX 17 13 18 14 19 15 20 16 24 17 22 18 21 19 23 21 32 23 29 25
REMARK SMILES IDX 5 27 14 28 6 29 12 30 7 31 10 32 15 33 13 35 8 37 9 38 11 40
REMARK H PARENT 21 20 23 22 32 24 29 26 15 34 13 36 9 39 11 41
REMARK Flexibility Score: inf
ROOT
ATOM      1  O   UNL     1      -0.296  12.852  14.800  1.00  0.00    -0.454 OA
ENDROOT
BRANCH   1   2
ATOM      2  C   UNL     1      -0.396  14.238  14.988  1.00  0.00     0.214 A 
ATOM      3  C   UNL     1      -0.503  14.824  16.278  1.00  0.00     0.180 A 
ATOM      4  O   UNL     1      -0.820  16.114  16.382  1.00  0.00    -0.452 OA
ATOM      5  C   UNL     1      -0.382  15.075  13.865  1.00  0.00     0.239 A 
ATOM      6  C   UNL     1      -0.798  16.940  15.337  1.00  0.00     0.146 A 
ATOM      7  O   UNL     1      -0.402  14.573  12.715  1.00  0.00    -0.285 OA
ATOM      8  C   UNL     1      -0.434  16.464  14.056  1.00  0.00     0.111 A 
ATOM      9  C   UNL     1      -1.125  18.285  15.517  1.00  0.00     0.094 A 
ATOM     10  C   UNL     1      -0.125  17.383  13.042  1.00  0.00     0.134 A 
ATOM     11  C   UNL     1      -0.848  19.200  14.494  1.00  0.00     0.123 A 
ATOM     12  C   UNL     1      -0.331  18.752  13.274  1.00  0.00     0.093 A 
BRANCH   3  13
ATOM     13  C   UNL     1      -0.190  14.030  17.502  1.00  0.00     0.025 A 
ATOM     14  C   UNL     1      -0.960  12.912  17.840  1.00  0.00     0.016 A 
ATOM     15  C   UNL     1      -0.402  11.941  18.693  1.00  0.00     0.051 A 
ATOM     16  C   UNL     1       0.891  12.103  19.215  1.00  0.00     0.157 A 
ATOM     17  C   UNL     1       1.026  14.276  18.171  1.00  0.00     0.062 A 
ATOM     18  C   UNL     1       1.565  13.318  19.040  1.00  0.00     0.158 A 
BRANCH  16  19
ATOM     19  O   UNL     1       1.504  11.066  19.911  1.00  0.00    -0.504 OA
ATOM     20  H   UNL     1       2.520  10.907  19.838  1.00  0.00     0.293 HD
ENDBRANCH  16  19
BRANCH  18  21
ATOM     21  O   UNL     1       2.795  13.576  19.662  1.00  0.00    -0.504 OA
ATOM     22  H   UNL     1       3.307  14.440  19.505  1.00  0.00     0.293 HD
ENDBRANCH  18  21
ENDBRANCH   3  13
BRANCH  10  23
ATOM     23  O   UNL     1       0.517  16.956  11.879  1.00  0.00    -0.507 OA
ATOM     24  H   UNL     1       0.192  16.158  11.331  1.00  0.00     0.293 HD
ENDBRANCH  10  23
BRANCH  11  25
ATOM     25  O   UNL     1      -1.071  20.557  14.674  1.00  0.00    -0.508 OA
ATOM     26  H   UNL     1      -0.571  21.061  15.405  1.00  0.00     0.293 HD
ENDBRANCH  11  25
ENDBRANCH   1   2
BRANCH   1  27
ATOM     27  C   UNL     1       0.936  12.150  14.574  1.00  0.00     0.339 C 
ATOM     28  C   UNL     1       0.937  11.421  13.174  1.00  0.00     0.214 C 
ATOM     29  O   UNL     1       2.006  13.037  14.886  1.00  0.00    -0.332 OA
ATOM     30  C   UNL     1       2.216  11.549  12.310  1.00  0.00     0.180 C 
ATOM     31  C   UNL     1       2.809  13.453  13.806  1.00  0.00     0.179 C 
ATOM     32  C   UNL     1       3.357  12.230  13.069  1.00  0.00     0.177 C 
BRANCH  28  33
ATOM     33  O   UNL     1      -0.190  11.816  12.425  1.00  0.00    -0.384 OA
ATOM     34  H   UNL     1      -0.926  11.200  12.694  1.00  0.00     0.211 HD
ENDBRANCH  28  33
BRANCH  30  35
ATOM     35  O   UNL     1       2.630  10.267  11.881  1.00  0.00    -0.387 OA
ATOM     36  H   UNL     1       3.520  10.371  11.443  1.00  0.00     0.211 HD
ENDBRANCH  30  35
BRANCH  31  37
ATOM     37  C   UNL     1       2.088  14.520  12.942  1.00  0.00     0.191 C 
BRANCH  37  38
ATOM     38  O   UNL     1       2.994  15.392  12.326  1.00  0.00    -0.394 OA
ATOM     39  H   UNL     1       3.613  15.714  13.036  1.00  0.00     0.210 HD
ENDBRANCH  37  38
ENDBRANCH  31  37
BRANCH  32  40
ATOM     40  O   UNL     1       4.353  12.631  12.152  1.00  0.00    -0.387 OA
ATOM     41  H   UNL     1       4.291  12.028  11.361  1.00  0.00     0.211 HD
ENDBRANCH  32  40
ENDBRANCH   1  27
TORSDOF 12
ENDMDL
MODEL 2
REMARK VINA RESULT:     0.543      1.413      2.285
REMARK INTER + INTRA:           1.552
REMARK INTER:                   1.076
REMARK INTRA:                   0.476
REMARK UNBOUND:                 0.755
REMARK SMILES O=c1c(O[C@@H]2O[C@H](CO)[C@H](O)[C@@H](O)[C@@H]2O)c(-c2ccc(O)c(O)c2)oc2cc(O)cc(O)c12
REMARK SMILES IDX 4 1 3 2 16 3 25 4 2 5 26 6 1 7 33 8 27 9 31 10 28 11 30 12
REMARK SMILES IDX 17 13 18 14 19 15 20 16 24 17 22 18 21 19 23 21 32 23 29 25
REMARK SMILES IDX 5 27 14 28 6 29 12 30 7 31 10 32 15 33 13 35 8 37 9 38 11 40
REMARK H PARENT 21 20 23 22 32 24 29 26 15 34 13 36 9 39 11 41
REMARK Flexibility Score: inf
ROOT
ATOM      1  O   UNL     1       2.341  13.855  15.067  1.00  0.00    -0.454 OA
ENDROOT
BRANCH   1   2
ATOM      2  C   UNL     1       1.632  15.063  15.005  1.00  0.00     0.214 A 
ATOM      3  C   UNL     1       0.582  15.376  15.911  1.00  0.00     0.180 A 
ATOM      4  O   UNL     1      -0.197  16.429  15.664  1.00  0.00    -0.452 OA
ATOM      5  C   UNL     1       1.976  15.999  14.021  1.00  0.00     0.239 A 
ATOM      6  C   UNL     1       0.111  17.346  14.749  1.00  0.00     0.146 A 
ATOM      7  O   UNL     1       2.820  15.696  13.144  1.00  0.00    -0.285 OA
ATOM      8  C   UNL     1       1.298  17.227  13.989  1.00  0.00     0.111 A 
ATOM      9  C   UNL     1      -0.740  18.433  14.552  1.00  0.00     0.094 A 
ATOM     10  C   UNL     1       1.760  18.331  13.257  1.00  0.00     0.134 A 
ATOM     11  C   UNL     1      -0.295  19.523  13.792  1.00  0.00     0.123 A 
ATOM     12  C   UNL     1       0.956  19.479  13.169  1.00  0.00     0.093 A 
BRANCH   3  13
ATOM     13  C   UNL     1       0.399  14.587  17.163  1.00  0.00     0.025 A 
ATOM     14  C   UNL     1      -0.778  13.862  17.381  1.00  0.00     0.016 A 
ATOM     15  C   UNL     1      -0.756  12.798  18.301  1.00  0.00     0.051 A 
ATOM     16  C   UNL     1       0.418  12.484  19.006  1.00  0.00     0.157 A 
ATOM     17  C   UNL     1       1.513  14.387  18.003  1.00  0.00     0.062 A 
ATOM     18  C   UNL     1       1.522  13.342  18.936  1.00  0.00     0.158 A 
BRANCH  16  19
ATOM     19  O   UNL     1       0.487  11.329  19.779  1.00  0.00    -0.504 OA
ATOM     20  H   UNL     1       0.050  10.452  19.461  1.00  0.00     0.293 HD
ENDBRANCH  16  19
BRANCH  18  21
ATOM     21  O   UNL     1       2.660  13.146  19.730  1.00  0.00    -0.504 OA
ATOM     22  H   UNL     1       3.483  13.737  19.648  1.00  0.00     0.293 HD
ENDBRANCH  18  21
ENDBRANCH   3  13
BRANCH  10  23
ATOM     23  O   UNL     1       3.061  18.344  12.750  1.00  0.00    -0.507 OA
ATOM     24  H   UNL     1       3.877  18.129  13.323  1.00  0.00     0.293 HD
ENDBRANCH  10  23
BRANCH  11  25
ATOM     25  O   UNL     1      -1.077  20.660  13.655  1.00  0.00    -0.508 OA
ATOM     26  H   UNL     1      -0.873  21.488  14.215  1.00  0.00     0.293 HD
ENDBRANCH  11  25
ENDBRANCH   1   2
BRANCH   1  27
ATOM     27  C   UNL     1       2.289  12.830  14.064  1.00  0.00     0.339 C 
ATOM     28  C   UNL     1       1.758  11.467  14.657  1.00  0.00     0.214 C 
ATOM     29  O   UNL     1       1.645  13.376  12.917  1.00  0.00    -0.332 OA
ATOM     30  C   UNL     1       0.703  10.696  13.824  1.00  0.00     0.180 C 
ATOM     31  C   UNL     1       0.384  12.839  12.592  1.00  0.00     0.179 C 
ATOM     32  C   UNL     1       0.491  11.321  12.444  1.00  0.00     0.177 C 
BRANCH  28  33
ATOM     33  O   UNL     1       1.282  11.667  15.968  1.00  0.00    -0.384 OA
ATOM     34  H   UNL     1       0.424  11.163  16.027  1.00  0.00     0.211 HD
ENDBRANCH  28  33
BRANCH  30  35
ATOM     35  O   UNL     1       1.107   9.348  13.678  1.00  0.00    -0.387 OA
ATOM     36  H   UNL     1       0.642   8.819  14.384  1.00  0.00     0.211 HD
ENDBRANCH  30  35
BRANCH  31  37
ATOM     37  C   UNL     1      -0.719  13.367  13.546  1.00  0.00     0.191 C 
BRANCH  37  38
ATOM     38  O   UNL     1      -1.114  14.670  13.217  1.00  0.00    -0.394 OA
ATOM     39  H   UNL     1      -0.287  15.172  12.984  1.00  0.00     0.210 HD
ENDBRANCH  37  38
ENDBRANCH  31  37
BRANCH  32  40
ATOM     40  O   UNL     1      -0.697  10.809  11.879  1.00  0.00    -0.387 OA
ATOM     41  H   UNL     1      -1.394  10.816  12.591  1.00  0.00     0.211 HD
ENDBRANCH  32  40
ENDBRANCH   1  27
TORSDOF 12
ENDMDL
MODEL 3
REMARK VINA RESULT:     0.589      1.572      5.353
REMARK INTER + INTRA:           1.620
REMARK INTER:                  -0.009
REMARK INTRA:                   1.629
REMARK UNBOUND:                 0.755
REMARK SMILES O=c1c(O[C@@H]2O[C@H](CO)[C@H](O)[C@@H](O)[C@@H]2O)c(-c2ccc(O)c(O)c2)oc2cc(O)cc(O)c12
REMARK SMILES IDX 4 1 3 2 16 3 25 4 2 5 26 6 1 7 33 8 27 9 31 10 28 11 30 12
REMARK SMILES IDX 17 13 18 14 19 15 20 16 24 17 22 18 21 19 23 21 32 23 29 25
REMARK SMILES IDX 5 27 14 28 6 29 12 30 7 31 10 32 15 33 13 35 8 37 9 38 11 40
REMARK H PARENT 21 20 23 22 32 24 29 26 15 34 13 36 9 39 11 41
REMARK Flexibility Score: inf
ROOT
ATOM      1  O   UNL     1       2.998  14.021  15.475  1.00  0.00    -0.454 OA
ENDROOT
BRANCH   1   2
ATOM      2  C   UNL     1       2.241  14.976  14.783  1.00  0.00     0.214 A 
ATOM      3  C   UNL     1       2.056  14.924  13.374  1.00  0.00     0.180 A 
ATOM      4  O   UNL     1       1.521  15.974  12.750  1.00  0.00    -0.452 OA
ATOM      5  C   UNL     1       1.638  16.014  15.505  1.00  0.00     0.239 A 
ATOM      6  C   UNL     1       0.924  16.967  13.407  1.00  0.00     0.146 A 
ATOM      7  O   UNL     1       1.882  16.141  16.730  1.00  0.00    -0.285 OA
ATOM      8  C   UNL     1       0.841  16.942  14.819  1.00  0.00     0.111 A 
ATOM      9  C   UNL     1       0.370  18.029  12.691  1.00  0.00     0.094 A 
ATOM     10  C   UNL     1      -0.036  17.821  15.472  1.00  0.00     0.134 A 
ATOM     11  C   UNL     1      -0.480  18.928  13.348  1.00  0.00     0.123 A 
ATOM     12  C   UNL     1      -0.697  18.809  14.724  1.00  0.00     0.093 A 
BRANCH   3  13
ATOM     13  C   UNL     1       2.381  13.685  12.610  1.00  0.00     0.025 A 
ATOM     14  C   UNL     1       3.707  13.377  12.288  1.00  0.00     0.016 A 
ATOM     15  C   UNL     1       4.036  12.041  11.991  1.00  0.00     0.051 A 
ATOM     16  C   UNL     1       3.050  11.041  11.994  1.00  0.00     0.157 A 
ATOM     17  C   UNL     1       1.370  12.719  12.431  1.00  0.00     0.062 A 
ATOM     18  C   UNL     1       1.700  11.396  12.110  1.00  0.00     0.158 A 
BRANCH  16  19
ATOM     19  O   UNL     1       3.405   9.701  11.875  1.00  0.00    -0.504 OA
ATOM     20  H   UNL     1       4.075   9.393  11.155  1.00  0.00     0.293 HD
ENDBRANCH  16  19
BRANCH  18  21
ATOM     21  O   UNL     1       0.675  10.450  11.976  1.00  0.00    -0.504 OA
ATOM     22  H   UNL     1       0.812   9.572  11.482  1.00  0.00     0.293 HD
ENDBRANCH  18  21
ENDBRANCH   3  13
BRANCH  10  23
ATOM     23  O   UNL     1      -0.361  17.621  16.814  1.00  0.00    -0.507 OA
ATOM     24  H   UNL     1       0.025  18.195  17.565  1.00  0.00     0.293 HD
ENDBRANCH  10  23
BRANCH  11  25
ATOM     25  O   UNL     1      -1.123  19.938  12.649  1.00  0.00    -0.508 OA
ATOM     26  H   UNL     1      -2.085  20.184  12.881  1.00  0.00     0.293 HD
ENDBRANCH  11  25
ENDBRANCH   1   2
BRANCH   1  27
ATOM     27  C   UNL     1       2.441  12.934  16.228  1.00  0.00     0.339 C 
ATOM     28  C   UNL     1       2.436  13.247  17.776  1.00  0.00     0.214 C 
ATOM     29  O   UNL     1       1.221  12.550  15.602  1.00  0.00    -0.332 OA
ATOM     30  C   UNL     1       1.145  12.908  18.562  1.00  0.00     0.180 C 
ATOM     31  C   UNL     1       0.040  12.794  16.331  1.00  0.00     0.179 C 
ATOM     32  C   UNL     1       0.137  12.137  17.708  1.00  0.00     0.177 C 
BRANCH  28  33
ATOM     33  O   UNL     1       2.793  14.592  17.995  1.00  0.00    -0.384 OA
ATOM     34  H   UNL     1       3.218  14.904  17.149  1.00  0.00     0.211 HD
ENDBRANCH  28  33
BRANCH  30  35
ATOM     35  O   UNL     1       1.474  12.148  19.710  1.00  0.00    -0.387 OA
ATOM     36  H   UNL     1       2.469  12.126  19.778  1.00  0.00     0.211 HD
ENDBRANCH  30  35
BRANCH  31  37
ATOM     37  C   UNL     1      -0.341  14.298  16.305  1.00  0.00     0.191 C 
BRANCH  37  38
ATOM     38  O   UNL     1      -0.865  14.724  17.531  1.00  0.00    -0.394 OA
ATOM     39  H   UNL     1      -1.324  15.591  17.363  1.00  0.00     0.210 HD
ENDBRANCH  37  38
ENDBRANCH  31  37
BRANCH  32  40
ATOM     40  O   UNL     1      -1.125  12.161  18.341  1.00  0.00    -0.387 OA
ATOM     41  H   UNL     1      -0.981  11.946  19.303  1.00  0.00     0.211 HD
ENDBRANCH  32  40
ENDBRANCH   1  27
TORSDOF 12
ENDMDL
MODEL 4
REMARK VINA RESULT:     1.009      1.813      1.946
REMARK INTER + INTRA:           2.237
REMARK INTER:                   2.023
REMARK INTRA:                   0.213
REMARK UNBOUND:                 0.755
REMARK SMILES O=c1c(O[C@@H]2O[C@H](CO)[C@H](O)[C@@H](O)[C@@H]2O)c(-c2ccc(O)c(O)c2)oc2cc(O)cc(O)c12
REMARK SMILES IDX 4 1 3 2 16 3 25 4 2 5 26 6 1 7 33 8 27 9 31 10 28 11 30 12
REMARK SMILES IDX 17 13 18 14 19 15 20 16 24 17 22 18 21 19 23 21 32 23 29 25
REMARK SMILES IDX 5 27 14 28 6 29 12 30 7 31 10 32 15 33 13 35 8 37 9 38 11 40
REMARK H PARENT 21 20 23 22 32 24 29 26 15 34 13 36 9 39 11 41
REMARK Flexibility Score: inf
ROOT
ATOM      1  O   UNL     1      -0.742  14.064  15.484  1.00  0.00    -0.454 OA
ENDROOT
BRANCH   1   2
ATOM      2  C   UNL     1      -0.036  15.196  15.916  1.00  0.00     0.214 A 
ATOM      3  C   UNL     1       0.408  15.349  17.257  1.00  0.00     0.180 A 
ATOM      4  O   UNL     1       0.869  16.533  17.659  1.00  0.00    -0.452 OA
ATOM      5  C   UNL     1       0.249  16.209  14.991  1.00  0.00     0.239 A 
ATOM      6  C   UNL     1       1.169  17.509  16.803  1.00  0.00     0.146 A 
ATOM      7  O   UNL     1      -0.230  16.145  13.833  1.00  0.00    -0.285 OA
ATOM      8  C   UNL     1       0.997  17.319  15.412  1.00  0.00     0.111 A 
ATOM      9  C   UNL     1       1.664  18.720  17.288  1.00  0.00     0.094 A 
ATOM     10  C   UNL     1       1.587  18.222  14.516  1.00  0.00     0.134 A 
ATOM     11  C   UNL     1       2.224  19.639  16.392  1.00  0.00     0.123 A 
ATOM     12  C   UNL     1       2.204  19.379  15.018  1.00  0.00     0.093 A 
BRANCH   3  13
ATOM     13  C   UNL     1       0.431  14.183  18.187  1.00  0.00     0.025 A 
ATOM     14  C   UNL     1      -0.626  13.267  18.206  1.00  0.00     0.016 A 
ATOM     15  C   UNL     1      -0.395  11.979  18.723  1.00  0.00     0.051 A 
ATOM     16  C   UNL     1       0.865  11.626  19.234  1.00  0.00     0.157 A 
ATOM     17  C   UNL     1       1.631  13.886  18.865  1.00  0.00     0.062 A 
ATOM     18  C   UNL     1       1.847  12.610  19.403  1.00  0.00     0.158 A 
BRANCH  16  19
ATOM     19  O   UNL     1       1.140  10.307  19.581  1.00  0.00    -0.504 OA
ATOM     20  H   UNL     1       0.496   9.546  19.322  1.00  0.00     0.293 HD
ENDBRANCH  16  19
BRANCH  18  21
ATOM     21  O   UNL     1       3.066  12.335  20.038  1.00  0.00    -0.504 OA
ATOM     22  H   UNL     1       3.616  13.062  20.488  1.00  0.00     0.293 HD
ENDBRANCH  18  21
ENDBRANCH   3  13
BRANCH  10  23
ATOM     23  O   UNL     1       1.691  17.902  13.161  1.00  0.00    -0.507 OA
ATOM     24  H   UNL     1       1.572  18.596  12.421  1.00  0.00     0.293 HD
ENDBRANCH  10  23
BRANCH  11  25
ATOM     25  O   UNL     1       2.811  20.809  16.848  1.00  0.00    -0.508 OA
ATOM     26  H   UNL     1       2.339  21.703  16.711  1.00  0.00     0.293 HD
ENDBRANCH  11  25
ENDBRANCH   1   2
BRANCH   1  27
ATOM     27  C   UNL     1      -0.128  12.852  15.022  1.00  0.00     0.339 C 
ATOM     28  C   UNL     1      -0.472  12.570  13.507  1.00  0.00     0.214 C 
ATOM     29  O   UNL     1       1.239  12.876  15.422  1.00  0.00    -0.332 OA
ATOM     30  C   UNL     1       0.692  12.124  12.588  1.00  0.00     0.180 C 
ATOM     31  C   UNL     1       2.192  12.976  14.388  1.00  0.00     0.179 C 
ATOM     32  C   UNL     1       1.975  11.851  13.376  1.00  0.00     0.177 C 
BRANCH  28  33
ATOM     33  O   UNL     1      -1.125  13.687  12.947  1.00  0.00    -0.384 OA
ATOM     34  H   UNL     1      -1.987  13.345  12.582  1.00  0.00     0.211 HD
ENDBRANCH  28  33
BRANCH  30  35
ATOM     35  O   UNL     1       0.316  10.962  11.875  1.00  0.00    -0.387 OA
ATOM     36  H   UNL     1       0.941  10.232  12.141  1.00  0.00     0.211 HD
ENDBRANCH  30  35
BRANCH  31  37
ATOM     37  C   UNL     1       2.262  14.417  13.819  1.00  0.00     0.191 C 
BRANCH  37  38
ATOM     38  O   UNL     1       3.415  14.619  13.051  1.00  0.00    -0.394 OA
ATOM     39  H   UNL     1       3.113  14.905  12.147  1.00  0.00     0.210 HD
ENDBRANCH  37  38
ENDBRANCH  31  37
BRANCH  32  40
ATOM     40  O   UNL     1       3.067  11.792  12.483  1.00  0.00    -0.387 OA
ATOM     41  H   UNL     1       3.841  12.234  12.928  1.00  0.00     0.211 HD
ENDBRANCH  32  40
ENDBRANCH   1  27
TORSDOF 12
ENDMDL
MODEL 5
REMARK VINA RESULT:     1.265      1.559      5.551
REMARK INTER + INTRA:           2.613
REMARK INTER:                   2.696
REMARK INTRA:                  -0.083
REMARK UNBOUND:                 0.755
REMARK SMILES O=c1c(O[C@@H]2O[C@H](CO)[C@H](O)[C@@H](O)[C@@H]2O)c(-c2ccc(O)c(O)c2)oc2cc(O)cc(O)c12
REMARK SMILES IDX 4 1 3 2 16 3 25 4 2 5 26 6 1 7 33 8 27 9 31 10 28 11 30 12
REMARK SMILES IDX 17 13 18 14 19 15 20 16 24 17 22 18 21 19 23 21 32 23 29 25
REMARK SMILES IDX 5 27 14 28 6 29 12 30 7 31 10 32 15 33 13 35 8 37 9 38 11 40
REMARK H PARENT 21 20 23 22 32 24 29 26 15 34 13 36 9 39 11 41
REMARK Flexibility Score: inf
ROOT
ATOM      1  O   UNL     1      -0.994  14.431  15.310  1.00  0.00    -0.454 OA
ENDROOT
BRANCH   1   2
ATOM      2  C   UNL     1      -0.035  13.476  14.945  1.00  0.00     0.214 A 
ATOM      3  C   UNL     1       1.095  13.184  15.758  1.00  0.00     0.180 A 
ATOM      4  O   UNL     1       2.080  12.439  15.258  1.00  0.00    -0.452 OA
ATOM      5  C   UNL     1      -0.199  12.777  13.742  1.00  0.00     0.239 A 
ATOM      6  C   UNL     1       1.949  11.748  14.128  1.00  0.00     0.146 A 
ATOM      7  O   UNL     1      -1.125  13.099  12.959  1.00  0.00    -0.285 OA
ATOM      8  C   UNL     1       0.736  11.787  13.402  1.00  0.00     0.111 A 
ATOM      9  C   UNL     1       3.014  10.973  13.668  1.00  0.00     0.094 A 
ATOM     10  C   UNL     1       0.504  10.838  12.394  1.00  0.00     0.134 A 
ATOM     11  C   UNL     1       2.795  10.048  12.639  1.00  0.00     0.123 A 
ATOM     12  C   UNL     1       1.542   9.968  12.024  1.00  0.00     0.093 A 
BRANCH   3  13
ATOM     13  C   UNL     1       1.147  13.639  17.178  1.00  0.00     0.025 A 
ATOM     14  C   UNL     1       0.084  13.376  18.048  1.00  0.00     0.016 A 
ATOM     15  C   UNL     1       0.325  13.393  19.434  1.00  0.00     0.051 A 
ATOM     16  C   UNL     1       1.602  13.693  19.936  1.00  0.00     0.157 A 
ATOM     17  C   UNL     1       2.371  14.117  17.687  1.00  0.00     0.062 A 
ATOM     18  C   UNL     1       2.599  14.158  19.069  1.00  0.00     0.158 A 
BRANCH  16  19
ATOM     19  O   UNL     1       1.881  13.539  21.290  1.00  0.00    -0.504 OA
ATOM     20  H   UNL     1       1.657  14.284  21.966  1.00  0.00     0.293 HD
ENDBRANCH  16  19
BRANCH  18  21
ATOM     21  O   UNL     1       3.841  14.603  19.543  1.00  0.00    -0.504 OA
ATOM     22  H   UNL     1       4.108  15.584  19.517  1.00  0.00     0.293 HD
ENDBRANCH  18  21
ENDBRANCH   3  13
BRANCH  10  23
ATOM     23  O   UNL     1      -0.779  10.663  11.875  1.00  0.00    -0.507 OA
ATOM     24  H   UNL     1      -1.289  11.412  11.404  1.00  0.00     0.293 HD
ENDBRANCH  10  23
BRANCH  11  25
ATOM     25  O   UNL     1       3.806   9.195  12.223  1.00  0.00    -0.508 OA
ATOM     26  H   UNL     1       4.055   8.386  12.791  1.00  0.00     0.293 HD
ENDBRANCH  11  25
ENDBRANCH   1   2
BRANCH   1  27
ATOM     27  C   UNL     1      -1.125  15.723  14.700  1.00  0.00     0.339 C 
ATOM     28  C   UNL     1      -0.965  16.882  15.760  1.00  0.00     0.214 C 
ATOM     29  O   UNL     1      -0.304  15.741  13.536  1.00  0.00    -0.332 OA
ATOM     30  C   UNL     1      -0.074  18.086  15.365  1.00  0.00     0.180 C 
ATOM     31  C   UNL     1       0.813  16.599  13.571  1.00  0.00     0.179 C 
ATOM     32  C   UNL     1       0.360  18.023  13.899  1.00  0.00     0.177 C 
BRANCH  28  33
ATOM     33  O   UNL     1      -0.534  16.350  16.992  1.00  0.00    -0.384 OA
ATOM     34  H   UNL     1      -0.990  15.468  17.083  1.00  0.00     0.211 HD
ENDBRANCH  28  33
BRANCH  30  35
ATOM     35  O   UNL     1      -0.774  19.292  15.601  1.00  0.00    -0.387 OA
ATOM     36  H   UNL     1      -1.674  19.203  15.181  1.00  0.00     0.211 HD
ENDBRANCH  30  35
BRANCH  31  37
ATOM     37  C   UNL     1       1.950  16.013  14.447  1.00  0.00     0.191 C 
BRANCH  37  38
ATOM     38  O   UNL     1       2.794  15.172  13.712  1.00  0.00    -0.394 OA
ATOM     39  H   UNL     1       2.648  14.248  14.052  1.00  0.00     0.210 HD
ENDBRANCH  37  38
ENDBRANCH  31  37
BRANCH  32  40
ATOM     40  O   UNL     1       1.427  18.925  13.690  1.00  0.00    -0.387 OA
ATOM     41  H   UNL     1       2.274  18.432  13.865  1.00  0.00     0.211 HD
ENDBRANCH  32  40
ENDBRANCH   1  27
TORSDOF 12
ENDMDL
