MODEL 1
REMARK VINA RESULT:    -3.105      0.000      0.000
REMARK INTER + INTRA:         -13.049
REMARK INTER:                  -7.825
REMARK INTRA:                  -5.224
REMARK UNBOUND:                -5.224
REMARK SMILES CCCCCCCCCCCCCCCCCCCCCCCCCCCC(=O)[O-]
REMARK SMILES IDX 15 1 16 2 17 3 18 4 19 5 20 6 21 7 22 8 23 9 24 10 25 11
REMARK SMILES IDX 26 12 27 13 28 14 29 15 30 16 14 17 13 18 12 19 11 20 10 21
REMARK SMILES IDX 9 22 8 23 7 24 6 25 5 26 4 27 3 28 2 29 1 30
REMARK H PARENT
REMARK Flexibility Score: inf
ROOT
ATOM      1  C   UNL     1     -21.087 -28.272  -4.988  1.00  0.00     0.000 C 
ENDROOT
BRANCH   1   2
ATOM      2  C   UNL     1     -20.582 -27.041  -5.756  1.00  0.00     0.000 C 
BRANCH   2   3
ATOM      3  C   UNL     1     -19.051 -27.068  -5.883  1.00  0.00     0.000 C 
BRANCH   3   4
ATOM      4  C   UNL     1     -18.465 -25.711  -6.305  1.00  0.00     0.000 C 
BRANCH   4   5
ATOM      5  C   UNL     1     -19.479 -24.843  -7.071  1.00  0.00     0.000 C 
BRANCH   5   6
ATOM      6  C   UNL     1     -19.246 -23.338  -6.859  1.00  0.00     0.000 C 
BRANCH   6   7
ATOM      7  C   UNL     1     -18.616 -23.025  -5.491  1.00  0.00     0.000 C 
BRANCH   7   8
ATOM      8  C   UNL     1     -18.537 -21.515  -5.203  1.00  0.00     0.000 C 
BRANCH   8   9
ATOM      9  C   UNL     1     -19.261 -21.053  -3.921  1.00  0.00     0.000 C 
BRANCH   9  10
ATOM     10  C   UNL     1     -20.755 -20.722  -4.096  1.00  0.00     0.000 C 
BRANCH  10  11
ATOM     11  C   UNL     1     -21.126 -20.390  -5.549  1.00  0.00     0.000 C 
BRANCH  11  12
ATOM     12  C   UNL     1     -22.075 -19.186  -5.613  1.00  0.00     0.006 C 
BRANCH  12  13
ATOM     13  C   UNL     1     -23.500 -19.631  -5.959  1.00  0.00     0.053 C 
BRANCH  13  14
ATOM     14  C   UNL     1     -23.653 -19.824  -7.435  1.00  0.00     0.041 C 
ATOM     15  O   UNL     1     -24.428 -20.712  -7.882  1.00  0.00    -0.550 OA
ATOM     16  O   UNL     1     -22.931 -19.031  -8.320  1.00  0.00    -0.550 OA
ENDBRANCH  13  14
ENDBRANCH  12  13
ENDBRANCH  11  12
ENDBRANCH  10  11
ENDBRANCH   9  10
ENDBRANCH   8   9
ENDBRANCH   7   8
ENDBRANCH   6   7
ENDBRANCH   5   6
ENDBRANCH   4   5
ENDBRANCH   3   4
ENDBRANCH   2   3
ENDBRANCH   1   2
BRANCH   1  17
ATOM     17  C   UNL     1     -19.966 -29.271  -4.658  1.00  0.00     0.000 C 
BRANCH  17  18
ATOM     18  C   UNL     1     -20.183 -30.077  -3.362  1.00  0.00     0.000 C 
BRANCH  18  19
ATOM     19  C   UNL     1     -21.347 -29.553  -2.494  1.00  0.00     0.000 C 
BRANCH  19  20
ATOM     20  C   UNL     1     -21.074 -29.724  -0.990  1.00  0.00     0.000 C 
BRANCH  20  21
ATOM     21  C   UNL     1     -19.565 -29.754  -0.666  1.00  0.00     0.000 C 
BRANCH  21  22
ATOM     22  C   UNL     1     -18.979 -28.379  -0.296  1.00  0.00    -0.000 C 
BRANCH  22  23
ATOM     23  C   UNL     1     -17.826 -27.903  -1.197  1.00  0.00    -0.000 C 
BRANCH  23  24
ATOM     24  C   UNL     1     -18.234 -26.900  -2.293  1.00  0.00    -0.000 C 
BRANCH  24  25
ATOM     25  C   UNL     1     -19.635 -26.288  -2.082  1.00  0.00    -0.000 C 
BRANCH  25  26
ATOM     26  C   UNL     1     -19.796 -24.936  -2.799  1.00  0.00    -0.000 C 
BRANCH  26  27
ATOM     27  C   UNL     1     -21.245 -24.421  -2.773  1.00  0.00    -0.000 C 
BRANCH  27  28
ATOM     28  C   UNL     1     -21.825 -24.212  -4.184  1.00  0.00    -0.000 C 
BRANCH  28  29
ATOM     29  C   UNL     1     -23.158 -23.446  -4.164  1.00  0.00    -0.003 C 
ATOM     30  C   UNL     1     -23.801 -23.348  -5.547  1.00  0.00     0.004 C 
ENDBRANCH  28  29
ENDBRANCH  27  28
ENDBRANCH  26  27
ENDBRANCH  25  26
ENDBRANCH  24  25
ENDBRANCH  23  24
ENDBRANCH  22  23
ENDBRANCH  21  22
ENDBRANCH  20  21
ENDBRANCH  19  20
ENDBRANCH  18  19
ENDBRANCH  17  18
ENDBRANCH   1  17
TORSDOF 26
ENDMDL
MODEL 2
REMARK VINA RESULT:    -3.069      4.319      8.292
REMARK INTER + INTRA:         -12.958
REMARK INTER:                  -9.586
REMARK INTRA:                  -3.372
REMARK UNBOUND:                -5.224
REMARK SMILES CCCCCCCCCCCCCCCCCCCCCCCCCCCC(=O)[O-]
REMARK SMILES IDX 15 1 16 2 17 3 18 4 19 5 20 6 21 7 22 8 23 9 24 10 25 11
REMARK SMILES IDX 26 12 27 13 28 14 29 15 30 16 14 17 13 18 12 19 11 20 10 21
REMARK SMILES IDX 9 22 8 23 7 24 6 25 5 26 4 27 3 28 2 29 1 30
REMARK H PARENT
REMARK Flexibility Score: inf
ROOT
ATOM      1  C   UNL     1     -21.661 -26.272  -5.417  1.00  0.00     0.000 C 
ENDROOT
BRANCH   1   2
ATOM      2  C   UNL     1     -21.034 -27.567  -4.880  1.00  0.00     0.000 C 
BRANCH   2   3
ATOM      3  C   UNL     1     -19.521 -27.397  -4.674  1.00  0.00     0.000 C 
BRANCH   3   4
ATOM      4  C   UNL     1     -19.169 -26.140  -3.862  1.00  0.00     0.000 C 
BRANCH   4   5
ATOM      5  C   UNL     1     -19.202 -26.390  -2.345  1.00  0.00     0.000 C 
BRANCH   5   6
ATOM      6  C   UNL     1     -18.023 -27.253  -1.863  1.00  0.00     0.000 C 
BRANCH   6   7
ATOM      7  C   UNL     1     -18.481 -28.469  -1.040  1.00  0.00     0.000 C 
BRANCH   7   8
ATOM      8  C   UNL     1     -19.762 -29.118  -1.597  1.00  0.00     0.000 C 
BRANCH   8   9
ATOM      9  C   UNL     1     -20.745 -29.649  -0.533  1.00  0.00     0.000 C 
BRANCH   9  10
ATOM     10  C   UNL     1     -22.225 -29.303  -0.780  1.00  0.00     0.000 C 
BRANCH  10  11
ATOM     11  C   UNL     1     -22.408 -28.025  -1.612  1.00  0.00     0.000 C 
BRANCH  11  12
ATOM     12  C   UNL     1     -22.898 -26.863  -0.738  1.00  0.00     0.006 C 
BRANCH  12  13
ATOM     13  C   UNL     1     -21.760 -26.312   0.128  1.00  0.00     0.053 C 
BRANCH  13  14
ATOM     14  C   UNL     1     -22.009 -26.595   1.576  1.00  0.00     0.041 C 
ATOM     15  O   UNL     1     -23.187 -26.747   2.000  1.00  0.00    -0.550 OA
ATOM     16  O   UNL     1     -20.943 -26.679   2.464  1.00  0.00    -0.550 OA
ENDBRANCH  13  14
ENDBRANCH  12  13
ENDBRANCH  11  12
ENDBRANCH  10  11
ENDBRANCH   9  10
ENDBRANCH   8   9
ENDBRANCH   7   8
ENDBRANCH   6   7
ENDBRANCH   5   6
ENDBRANCH   4   5
ENDBRANCH   3   4
ENDBRANCH   2   3
ENDBRANCH   1   2
BRANCH   1  17
ATOM     17  C   UNL     1     -22.659 -25.640  -4.432  1.00  0.00     0.000 C 
BRANCH  17  18
ATOM     18  C   UNL     1     -23.085 -24.201  -4.782  1.00  0.00     0.000 C 
BRANCH  18  19
ATOM     19  C   UNL     1     -21.980 -23.150  -4.535  1.00  0.00     0.000 C 
BRANCH  19  20
ATOM     20  C   UNL     1     -21.480 -23.164  -3.080  1.00  0.00     0.000 C 
BRANCH  20  21
ATOM     21  C   UNL     1     -20.032 -22.644  -2.952  1.00  0.00     0.000 C 
BRANCH  21  22
ATOM     22  C   UNL     1     -19.708 -21.464  -3.886  1.00  0.00    -0.000 C 
BRANCH  22  23
ATOM     23  C   UNL     1     -19.978 -20.072  -3.288  1.00  0.00    -0.000 C 
BRANCH  23  24
ATOM     24  C   UNL     1     -19.475 -18.893  -4.143  1.00  0.00    -0.000 C 
BRANCH  24  25
ATOM     25  C   UNL     1     -17.963 -18.617  -3.989  1.00  0.00    -0.000 C 
BRANCH  25  26
ATOM     26  C   UNL     1     -17.677 -17.187  -3.500  1.00  0.00    -0.000 C 
BRANCH  26  27
ATOM     27  C   UNL     1     -16.299 -17.054  -2.830  1.00  0.00    -0.000 C 
BRANCH  27  28
ATOM     28  C   UNL     1     -15.445 -15.934  -3.450  1.00  0.00    -0.000 C 
BRANCH  28  29
ATOM     29  C   UNL     1     -16.258 -14.659  -3.730  1.00  0.00    -0.003 C 
ATOM     30  C   UNL     1     -16.261 -14.276  -5.209  1.00  0.00     0.004 C 
ENDBRANCH  28  29
ENDBRANCH  27  28
ENDBRANCH  26  27
ENDBRANCH  25  26
ENDBRANCH  24  25
ENDBRANCH  23  24
ENDBRANCH  22  23
ENDBRANCH  21  22
ENDBRANCH  20  21
ENDBRANCH  19  20
ENDBRANCH  18  19
ENDBRANCH  17  18
ENDBRANCH   1  17
TORSDOF 26
ENDMDL
MODEL 3
REMARK VINA RESULT:    -3.038      3.124      5.437
REMARK INTER + INTRA:         -12.879
REMARK INTER:                  -6.840
REMARK INTRA:                  -6.039
REMARK UNBOUND:                -5.224
REMARK SMILES CCCCCCCCCCCCCCCCCCCCCCCCCCCC(=O)[O-]
REMARK SMILES IDX 15 1 16 2 17 3 18 4 19 5 20 6 21 7 22 8 23 9 24 10 25 11
REMARK SMILES IDX 26 12 27 13 28 14 29 15 30 16 14 17 13 18 12 19 11 20 10 21
REMARK SMILES IDX 9 22 8 23 7 24 6 25 5 26 4 27 3 28 2 29 1 30
REMARK H PARENT
REMARK Flexibility Score: inf
ROOT
ATOM      1  C   UNL     1     -23.787 -27.418  -2.889  1.00  0.00     0.000 C 
ENDROOT
BRANCH   1   2
ATOM      2  C   UNL     1     -22.482 -27.993  -2.318  1.00  0.00     0.000 C 
BRANCH   2   3
ATOM      3  C   UNL     1     -21.717 -28.780  -3.392  1.00  0.00     0.000 C 
BRANCH   3   4
ATOM      4  C   UNL     1     -20.621 -29.682  -2.802  1.00  0.00     0.000 C 
BRANCH   4   5
ATOM      5  C   UNL     1     -20.684 -29.758  -1.266  1.00  0.00     0.000 C 
BRANCH   5   6
ATOM      6  C   UNL     1     -19.289 -29.739  -0.617  1.00  0.00     0.000 C 
BRANCH   6   7
ATOM      7  C   UNL     1     -18.820 -28.315  -0.271  1.00  0.00     0.000 C 
BRANCH   7   8
ATOM      8  C   UNL     1     -17.727 -27.801  -1.225  1.00  0.00     0.000 C 
BRANCH   8   9
ATOM      9  C   UNL     1     -18.202 -26.775  -2.275  1.00  0.00     0.000 C 
BRANCH   9  10
ATOM     10  C   UNL     1     -19.551 -26.101  -1.968  1.00  0.00     0.000 C 
BRANCH  10  11
ATOM     11  C   UNL     1     -20.080 -25.260  -3.139  1.00  0.00     0.000 C 
BRANCH  11  12
ATOM     12  C   UNL     1     -21.249 -24.371  -2.696  1.00  0.00     0.006 C 
BRANCH  12  13
ATOM     13  C   UNL     1     -22.125 -23.982  -3.892  1.00  0.00     0.053 C 
BRANCH  13  14
ATOM     14  C   UNL     1     -21.770 -22.616  -4.387  1.00  0.00     0.041 C 
ATOM     15  O   UNL     1     -22.255 -22.187  -5.469  1.00  0.00    -0.550 OA
ATOM     16  O   UNL     1     -20.892 -21.818  -3.663  1.00  0.00    -0.550 OA
ENDBRANCH  13  14
ENDBRANCH  12  13
ENDBRANCH  11  12
ENDBRANCH  10  11
ENDBRANCH   9  10
ENDBRANCH   8   9
ENDBRANCH   7   8
ENDBRANCH   6   7
ENDBRANCH   5   6
ENDBRANCH   4   5
ENDBRANCH   3   4
ENDBRANCH   2   3
ENDBRANCH   1   2
BRANCH   1  17
ATOM     17  C   UNL     1     -25.037 -27.930  -2.154  1.00  0.00     0.000 C 
BRANCH  17  18
ATOM     18  C   UNL     1     -24.772 -29.073  -1.154  1.00  0.00     0.000 C 
BRANCH  18  19
ATOM     19  C   UNL     1     -25.611 -28.972   0.138  1.00  0.00     0.000 C 
BRANCH  19  20
ATOM     20  C   UNL     1     -24.821 -29.417   1.381  1.00  0.00     0.000 C 
BRANCH  20  21
ATOM     21  C   UNL     1     -23.329 -29.666   1.072  1.00  0.00     0.000 C 
BRANCH  21  22
ATOM     22  C   UNL     1     -22.367 -29.053   2.106  1.00  0.00    -0.000 C 
BRANCH  22  23
ATOM     23  C   UNL     1     -22.425 -27.520   2.215  1.00  0.00    -0.000 C 
BRANCH  23  24
ATOM     24  C   UNL     1     -21.742 -26.763   1.060  1.00  0.00    -0.000 C 
BRANCH  24  25
ATOM     25  C   UNL     1     -22.674 -25.768   0.335  1.00  0.00    -0.000 C 
BRANCH  25  26
ATOM     26  C   UNL     1     -24.086 -25.738   0.947  1.00  0.00    -0.000 C 
BRANCH  26  27
ATOM     27  C   UNL     1     -24.972 -24.638   0.338  1.00  0.00    -0.000 C 
BRANCH  27  28
ATOM     28  C   UNL     1     -24.628 -24.347  -1.134  1.00  0.00    -0.000 C 
BRANCH  28  29
ATOM     29  C   UNL     1     -25.075 -22.944  -1.576  1.00  0.00    -0.003 C 
ATOM     30  C   UNL     1     -25.908 -22.229  -0.512  1.00  0.00     0.004 C 
ENDBRANCH  28  29
ENDBRANCH  27  28
ENDBRANCH  26  27
ENDBRANCH  25  26
ENDBRANCH  24  25
ENDBRANCH  23  24
ENDBRANCH  22  23
ENDBRANCH  21  22
ENDBRANCH  20  21
ENDBRANCH  19  20
ENDBRANCH  18  19
ENDBRANCH  17  18
ENDBRANCH   1  17
TORSDOF 26
ENDMDL
MODEL 4
REMARK VINA RESULT:    -2.989      1.999      4.070
REMARK INTER + INTRA:         -12.756
REMARK INTER:                  -8.973
REMARK INTRA:                  -3.783
REMARK UNBOUND:                -5.224
REMARK SMILES CCCCCCCCCCCCCCCCCCCCCCCCCCCC(=O)[O-]
REMARK SMILES IDX 15 1 16 2 17 3 18 4 19 5 20 6 21 7 22 8 23 9 24 10 25 11
REMARK SMILES IDX 26 12 27 13 28 14 29 15 30 16 14 17 13 18 12 19 11 20 10 21
REMARK SMILES IDX 9 22 8 23 7 24 6 25 5 26 4 27 3 28 2 29 1 30
REMARK H PARENT
REMARK Flexibility Score: inf
ROOT
ATOM      1  C   UNL     1     -18.800 -26.965  -2.709  1.00  0.00     0.000 C 
ENDROOT
BRANCH   1   2
ATOM      2  C   UNL     1     -18.951 -25.546  -3.275  1.00  0.00     0.000 C 
BRANCH   2   3
ATOM      3  C   UNL     1     -20.273 -25.402  -4.043  1.00  0.00     0.000 C 
BRANCH   3   4
ATOM      4  C   UNL     1     -20.783 -23.953  -4.086  1.00  0.00     0.000 C 
BRANCH   4   5
ATOM      5  C   UNL     1     -19.879 -22.987  -3.301  1.00  0.00     0.000 C 
BRANCH   5   6
ATOM      6  C   UNL     1     -20.526 -21.605  -3.100  1.00  0.00     0.000 C 
BRANCH   6   7
ATOM      7  C   UNL     1     -19.639 -20.459  -3.618  1.00  0.00     0.000 C 
BRANCH   7   8
ATOM      8  C   UNL     1     -20.450 -19.336  -4.290  1.00  0.00     0.000 C 
BRANCH   8   9
ATOM      9  C   UNL     1     -21.474 -19.807  -5.345  1.00  0.00     0.000 C 
BRANCH   9  10
ATOM     10  C   UNL     1     -22.669 -18.861  -5.563  1.00  0.00     0.000 C 
BRANCH  10  11
ATOM     11  C   UNL     1     -23.820 -19.523  -6.334  1.00  0.00     0.000 C 
BRANCH  11  12
ATOM     12  C   UNL     1     -23.311 -20.190  -7.619  1.00  0.00     0.006 C 
BRANCH  12  13
ATOM     13  C   UNL     1     -24.419 -21.014  -8.284  1.00  0.00     0.053 C 
BRANCH  13  14
ATOM     14  C   UNL     1     -24.722 -20.490  -9.653  1.00  0.00     0.041 C 
ATOM     15  O   UNL     1     -25.437 -21.160 -10.445  1.00  0.00    -0.550 OA
ATOM     16  O   UNL     1     -24.204 -19.266 -10.061  1.00  0.00    -0.550 OA
ENDBRANCH  13  14
ENDBRANCH  12  13
ENDBRANCH  11  12
ENDBRANCH  10  11
ENDBRANCH   9  10
ENDBRANCH   8   9
ENDBRANCH   7   8
ENDBRANCH   6   7
ENDBRANCH   5   6
ENDBRANCH   4   5
ENDBRANCH   3   4
ENDBRANCH   2   3
ENDBRANCH   1   2
BRANCH   1  17
ATOM     17  C   UNL     1     -17.530 -27.136  -1.858  1.00  0.00     0.000 C 
BRANCH  17  18
ATOM     18  C   UNL     1     -17.647 -28.179  -0.730  1.00  0.00     0.000 C 
BRANCH  18  19
ATOM     19  C   UNL     1     -19.085 -28.359  -0.198  1.00  0.00     0.000 C 
BRANCH  19  20
ATOM     20  C   UNL     1     -19.635 -29.769  -0.473  1.00  0.00     0.000 C 
BRANCH  20  21
ATOM     21  C   UNL     1     -21.113 -29.746  -0.920  1.00  0.00     0.000 C 
BRANCH  21  22
ATOM     22  C   UNL     1     -21.302 -29.699  -2.448  1.00  0.00    -0.000 C 
BRANCH  22  23
ATOM     23  C   UNL     1     -22.162 -28.530  -2.958  1.00  0.00    -0.000 C 
BRANCH  23  24
ATOM     24  C   UNL     1     -23.028 -27.847  -1.882  1.00  0.00    -0.000 C 
BRANCH  24  25
ATOM     25  C   UNL     1     -22.793 -26.325  -1.772  1.00  0.00    -0.000 C 
BRANCH  25  26
ATOM     26  C   UNL     1     -21.849 -25.961  -0.613  1.00  0.00    -0.000 C 
BRANCH  26  27
ATOM     27  C   UNL     1     -22.511 -26.129   0.765  1.00  0.00    -0.000 C 
BRANCH  27  28
ATOM     28  C   UNL     1     -21.539 -26.676   1.826  1.00  0.00    -0.000 C 
BRANCH  28  29
ATOM     29  C   UNL     1     -21.980 -28.041   2.380  1.00  0.00    -0.003 C 
ATOM     30  C   UNL     1     -23.323 -28.501   1.813  1.00  0.00     0.004 C 
ENDBRANCH  28  29
ENDBRANCH  27  28
ENDBRANCH  26  27
ENDBRANCH  25  26
ENDBRANCH  24  25
ENDBRANCH  23  24
ENDBRANCH  22  23
ENDBRANCH  21  22
ENDBRANCH  20  21
ENDBRANCH  19  20
ENDBRANCH  18  19
ENDBRANCH  17  18
ENDBRANCH   1  17
TORSDOF 26
ENDMDL
MODEL 5
REMARK VINA RESULT:    -2.919      3.222      4.426
REMARK INTER + INTRA:         -12.580
REMARK INTER:                  -9.168
REMARK INTRA:                  -3.412
REMARK UNBOUND:                -5.224
REMARK SMILES CCCCCCCCCCCCCCCCCCCCCCCCCCCC(=O)[O-]
REMARK SMILES IDX 15 1 16 2 17 3 18 4 19 5 20 6 21 7 22 8 23 9 24 10 25 11
REMARK SMILES IDX 26 12 27 13 28 14 29 15 30 16 14 17 13 18 12 19 11 20 10 21
REMARK SMILES IDX 9 22 8 23 7 24 6 25 5 26 4 27 3 28 2 29 1 30
REMARK H PARENT
REMARK Flexibility Score: inf
ROOT
ATOM      1  C   UNL     1     -18.612 -26.199  -4.918  1.00  0.00     0.000 C 
ENDROOT
BRANCH   1   2
ATOM      2  C   UNL     1     -17.581 -26.307  -6.051  1.00  0.00     0.000 C 
BRANCH   2   3
ATOM      3  C   UNL     1     -16.254 -25.648  -5.646  1.00  0.00     0.000 C 
BRANCH   3   4
ATOM      4  C   UNL     1     -15.792 -24.576  -6.646  1.00  0.00     0.000 C 
BRANCH   4   5
ATOM      5  C   UNL     1     -15.770 -23.166  -6.030  1.00  0.00     0.000 C 
BRANCH   5   6
ATOM      6  C   UNL     1     -16.957 -22.302  -6.492  1.00  0.00     0.000 C 
BRANCH   6   7
ATOM      7  C   UNL     1     -18.239 -22.586  -5.691  1.00  0.00     0.000 C 
BRANCH   7   8
ATOM      8  C   UNL     1     -19.452 -21.793  -6.210  1.00  0.00     0.000 C 
BRANCH   8   9
ATOM      9  C   UNL     1     -19.997 -20.719  -5.244  1.00  0.00     0.000 C 
BRANCH   9  10
ATOM     10  C   UNL     1     -19.073 -20.374  -4.062  1.00  0.00     0.000 C 
BRANCH  10  11
ATOM     11  C   UNL     1     -19.149 -18.895  -3.657  1.00  0.00     0.000 C 
BRANCH  11  12
ATOM     12  C   UNL     1     -17.880 -18.142  -4.079  1.00  0.00     0.006 C 
BRANCH  12  13
ATOM     13  C   UNL     1     -17.490 -17.094  -3.031  1.00  0.00     0.053 C 
BRANCH  13  14
ATOM     14  C   UNL     1     -16.277 -16.333  -3.466  1.00  0.00     0.041 C 
ATOM     15  O   UNL     1     -15.203 -16.942  -3.721  1.00  0.00    -0.550 OA
ATOM     16  O   UNL     1     -16.326 -14.949  -3.579  1.00  0.00    -0.550 OA
ENDBRANCH  13  14
ENDBRANCH  12  13
ENDBRANCH  11  12
ENDBRANCH  10  11
ENDBRANCH   9  10
ENDBRANCH   8   9
ENDBRANCH   7   8
ENDBRANCH   6   7
ENDBRANCH   5   6
ENDBRANCH   4   5
ENDBRANCH   3   4
ENDBRANCH   2   3
ENDBRANCH   1   2
BRANCH   1  17
ATOM     17  C   UNL     1     -17.962 -26.087  -3.528  1.00  0.00     0.000 C 
BRANCH  17  18
ATOM     18  C   UNL     1     -18.633 -26.940  -2.434  1.00  0.00     0.000 C 
BRANCH  18  19
ATOM     19  C   UNL     1     -17.646 -27.481  -1.377  1.00  0.00     0.000 C 
BRANCH  19  20
ATOM     20  C   UNL     1     -18.212 -28.693  -0.618  1.00  0.00     0.000 C 
BRANCH  20  21
ATOM     21  C   UNL     1     -19.519 -29.223  -1.247  1.00  0.00     0.000 C 
BRANCH  21  22
ATOM     22  C   UNL     1     -20.732 -29.174  -0.299  1.00  0.00    -0.000 C 
BRANCH  22  23
ATOM     23  C   UNL     1     -22.102 -29.216  -0.999  1.00  0.00    -0.000 C 
BRANCH  23  24
ATOM     24  C   UNL     1     -22.049 -29.078  -2.533  1.00  0.00    -0.000 C 
BRANCH  24  25
ATOM     25  C   UNL     1     -22.073 -27.615  -3.024  1.00  0.00    -0.000 C 
BRANCH  25  26
ATOM     26  C   UNL     1     -22.839 -26.688  -2.063  1.00  0.00    -0.000 C 
BRANCH  26  27
ATOM     27  C   UNL     1     -21.989 -25.502  -1.581  1.00  0.00    -0.000 C 
BRANCH  27  28
ATOM     28  C   UNL     1     -22.728 -24.157  -1.695  1.00  0.00    -0.000 C 
BRANCH  28  29
ATOM     29  C   UNL     1     -21.917 -23.103  -2.466  1.00  0.00    -0.003 C 
ATOM     30  C   UNL     1     -20.610 -23.661  -3.028  1.00  0.00     0.004 C 
ENDBRANCH  28  29
ENDBRANCH  27  28
ENDBRANCH  26  27
ENDBRANCH  25  26
ENDBRANCH  24  25
ENDBRANCH  23  24
ENDBRANCH  22  23
ENDBRANCH  21  22
ENDBRANCH  20  21
ENDBRANCH  19  20
ENDBRANCH  18  19
ENDBRANCH  17  18
ENDBRANCH   1  17
TORSDOF 26
ENDMDL
MODEL 6
REMARK VINA RESULT:    -2.909      2.249      5.664
REMARK INTER + INTRA:         -12.556
REMARK INTER:                  -7.834
REMARK INTRA:                  -4.722
REMARK UNBOUND:                -5.224
REMARK SMILES CCCCCCCCCCCCCCCCCCCCCCCCCCCC(=O)[O-]
REMARK SMILES IDX 15 1 16 2 17 3 18 4 19 5 20 6 21 7 22 8 23 9 24 10 25 11
REMARK SMILES IDX 26 12 27 13 28 14 29 15 30 16 14 17 13 18 12 19 11 20 10 21
REMARK SMILES IDX 9 22 8 23 7 24 6 25 5 26 4 27 3 28 2 29 1 30
REMARK H PARENT
REMARK Flexibility Score: inf
ROOT
ATOM      1  C   UNL     1     -18.749 -28.261  -0.365  1.00  0.00     0.000 C 
ENDROOT
BRANCH   1   2
ATOM      2  C   UNL     1     -19.318 -29.633  -0.759  1.00  0.00     0.000 C 
BRANCH   2   3
ATOM      3  C   UNL     1     -20.794 -29.749  -0.351  1.00  0.00     0.000 C 
BRANCH   3   4
ATOM      4  C   UNL     1     -21.751 -29.678  -1.551  1.00  0.00     0.000 C 
BRANCH   4   5
ATOM      5  C   UNL     1     -22.561 -28.370  -1.582  1.00  0.00     0.000 C 
BRANCH   5   6
ATOM      6  C   UNL     1     -22.417 -27.556  -0.285  1.00  0.00     0.000 C 
BRANCH   6   7
ATOM      7  C   UNL     1     -22.039 -26.088  -0.549  1.00  0.00     0.000 C 
BRANCH   7   8
ATOM      8  C   UNL     1     -22.463 -25.607  -1.949  1.00  0.00     0.000 C 
BRANCH   8   9
ATOM      9  C   UNL     1     -22.793 -24.104  -2.055  1.00  0.00     0.000 C 
BRANCH   9  10
ATOM     10  C   UNL     1     -22.539 -23.475  -3.437  1.00  0.00     0.000 C 
BRANCH  10  11
ATOM     11  C   UNL     1     -21.083 -23.620  -3.901  1.00  0.00     0.000 C 
BRANCH  11  12
ATOM     12  C   UNL     1     -20.145 -22.752  -3.052  1.00  0.00     0.006 C 
BRANCH  12  13
ATOM     13  C   UNL     1     -19.385 -21.749  -3.927  1.00  0.00     0.053 C 
BRANCH  13  14
ATOM     14  C   UNL     1     -20.077 -20.422  -3.935  1.00  0.00     0.041 C 
ATOM     15  O   UNL     1     -19.863 -19.588  -3.014  1.00  0.00    -0.550 OA
ATOM     16  O   UNL     1     -20.971 -20.108  -4.952  1.00  0.00    -0.550 OA
ENDBRANCH  13  14
ENDBRANCH  12  13
ENDBRANCH  11  12
ENDBRANCH  10  11
ENDBRANCH   9  10
ENDBRANCH   8   9
ENDBRANCH   7   8
ENDBRANCH   6   7
ENDBRANCH   5   6
ENDBRANCH   4   5
ENDBRANCH   3   4
ENDBRANCH   2   3
ENDBRANCH   1   2
BRANCH   1  17
ATOM     17  C   UNL     1     -18.004 -27.571  -1.520  1.00  0.00     0.000 C 
BRANCH  17  18
ATOM     18  C   UNL     1     -18.858 -26.584  -2.340  1.00  0.00     0.000 C 
BRANCH  18  19
ATOM     19  C   UNL     1     -19.589 -27.239  -3.532  1.00  0.00     0.000 C 
BRANCH  19  20
ATOM     20  C   UNL     1     -19.077 -26.718  -4.885  1.00  0.00     0.000 C 
BRANCH  20  21
ATOM     21  C   UNL     1     -17.848 -25.796  -4.734  1.00  0.00     0.000 C 
BRANCH  21  22
ATOM     22  C   UNL     1     -16.812 -25.946  -5.863  1.00  0.00    -0.000 C 
BRANCH  22  23
ATOM     23  C   UNL     1     -15.477 -25.222  -5.617  1.00  0.00    -0.000 C 
BRANCH  23  24
ATOM     24  C   UNL     1     -15.110 -24.165  -6.676  1.00  0.00    -0.000 C 
BRANCH  24  25
ATOM     25  C   UNL     1     -15.175 -22.715  -6.151  1.00  0.00    -0.000 C 
BRANCH  25  26
ATOM     26  C   UNL     1     -16.611 -22.163  -6.131  1.00  0.00    -0.000 C 
BRANCH  26  27
ATOM     27  C   UNL     1     -17.096 -21.722  -7.522  1.00  0.00    -0.000 C 
BRANCH  27  28
ATOM     28  C   UNL     1     -18.592 -22.004  -7.745  1.00  0.00    -0.000 C 
BRANCH  28  29
ATOM     29  C   UNL     1     -19.047 -23.321  -7.093  1.00  0.00    -0.003 C 
ATOM     30  C   UNL     1     -19.934 -24.158  -8.014  1.00  0.00     0.004 C 
ENDBRANCH  28  29
ENDBRANCH  27  28
ENDBRANCH  26  27
ENDBRANCH  25  26
ENDBRANCH  24  25
ENDBRANCH  23  24
ENDBRANCH  22  23
ENDBRANCH  21  22
ENDBRANCH  20  21
ENDBRANCH  19  20
ENDBRANCH  18  19
ENDBRANCH  17  18
ENDBRANCH   1  17
TORSDOF 26
ENDMDL
MODEL 7
REMARK VINA RESULT:    -2.907      2.661      4.381
REMARK INTER + INTRA:         -12.550
REMARK INTER:                  -8.122
REMARK INTRA:                  -4.428
REMARK UNBOUND:                -5.224
REMARK SMILES CCCCCCCCCCCCCCCCCCCCCCCCCCCC(=O)[O-]
REMARK SMILES IDX 15 1 16 2 17 3 18 4 19 5 20 6 21 7 22 8 23 9 24 10 25 11
REMARK SMILES IDX 26 12 27 13 28 14 29 15 30 16 14 17 13 18 12 19 11 20 10 21
REMARK SMILES IDX 9 22 8 23 7 24 6 25 5 26 4 27 3 28 2 29 1 30
REMARK H PARENT
REMARK Flexibility Score: inf
ROOT
ATOM      1  C   UNL     1     -18.964 -26.390  -2.236  1.00  0.00     0.000 C 
ENDROOT
BRANCH   1   2
ATOM      2  C   UNL     1     -19.197 -26.598  -3.740  1.00  0.00     0.000 C 
BRANCH   2   3
ATOM      3  C   UNL     1     -20.685 -26.442  -4.088  1.00  0.00     0.000 C 
BRANCH   3   4
ATOM      4  C   UNL     1     -21.024 -25.050  -4.643  1.00  0.00     0.000 C 
BRANCH   4   5
ATOM      5  C   UNL     1     -22.060 -24.307  -3.781  1.00  0.00     0.000 C 
BRANCH   5   6
ATOM      6  C   UNL     1     -21.406 -23.411  -2.715  1.00  0.00     0.000 C 
BRANCH   6   7
ATOM      7  C   UNL     1     -20.051 -22.843  -3.173  1.00  0.00     0.000 C 
BRANCH   7   8
ATOM      8  C   UNL     1     -20.040 -21.305  -3.232  1.00  0.00     0.000 C 
BRANCH   8   9
ATOM      9  C   UNL     1     -19.714 -20.704  -4.616  1.00  0.00     0.000 C 
BRANCH   9  10
ATOM     10  C   UNL     1     -19.883 -21.668  -5.804  1.00  0.00     0.000 C 
BRANCH  10  11
ATOM     11  C   UNL     1     -20.993 -21.234  -6.772  1.00  0.00     0.000 C 
BRANCH  11  12
ATOM     12  C   UNL     1     -22.325 -21.911  -6.423  1.00  0.00     0.006 C 
BRANCH  12  13
ATOM     13  C   UNL     1     -23.203 -20.986  -5.573  1.00  0.00     0.053 C 
BRANCH  13  14
ATOM     14  C   UNL     1     -23.534 -19.733  -6.321  1.00  0.00     0.041 C 
ATOM     15  O   UNL     1     -24.162 -19.792  -7.412  1.00  0.00    -0.550 OA
ATOM     16  O   UNL     1     -23.138 -18.498  -5.821  1.00  0.00    -0.550 OA
ENDBRANCH  13  14
ENDBRANCH  12  13
ENDBRANCH  11  12
ENDBRANCH  10  11
ENDBRANCH   9  10
ENDBRANCH   8   9
ENDBRANCH   7   8
ENDBRANCH   6   7
ENDBRANCH   5   6
ENDBRANCH   4   5
ENDBRANCH   3   4
ENDBRANCH   2   3
ENDBRANCH   1   2
BRANCH   1  17
ATOM     17  C   UNL     1     -18.194 -27.552  -1.586  1.00  0.00     0.000 C 
BRANCH  17  18
ATOM     18  C   UNL     1     -18.904 -28.202  -0.383  1.00  0.00     0.000 C 
BRANCH  18  19
ATOM     19  C   UNL     1     -19.454 -29.615  -0.676  1.00  0.00     0.000 C 
BRANCH  19  20
ATOM     20  C   UNL     1     -20.072 -29.718  -2.081  1.00  0.00     0.000 C 
BRANCH  20  21
ATOM     21  C   UNL     1     -21.611 -29.843  -2.039  1.00  0.00     0.000 C 
BRANCH  21  22
ATOM     22  C   UNL     1     -22.271 -29.038  -0.904  1.00  0.00    -0.000 C 
BRANCH  22  23
ATOM     23  C   UNL     1     -22.863 -27.683  -1.332  1.00  0.00    -0.000 C 
BRANCH  23  24
ATOM     24  C   UNL     1     -22.151 -26.451  -0.741  1.00  0.00    -0.000 C 
BRANCH  24  25
ATOM     25  C   UNL     1     -23.032 -25.634   0.229  1.00  0.00    -0.000 C 
BRANCH  25  26
ATOM     26  C   UNL     1     -22.859 -26.080   1.692  1.00  0.00    -0.000 C 
BRANCH  26  27
ATOM     27  C   UNL     1     -21.465 -26.667   1.972  1.00  0.00    -0.000 C 
BRANCH  27  28
ATOM     28  C   UNL     1     -21.093 -26.623   3.465  1.00  0.00    -0.000 C 
BRANCH  28  29
ATOM     29  C   UNL     1     -22.214 -27.164   4.367  1.00  0.00    -0.003 C 
ATOM     30  C   UNL     1     -22.640 -26.163   5.441  1.00  0.00     0.004 C 
ENDBRANCH  28  29
ENDBRANCH  27  28
ENDBRANCH  26  27
ENDBRANCH  25  26
ENDBRANCH  24  25
ENDBRANCH  23  24
ENDBRANCH  22  23
ENDBRANCH  21  22
ENDBRANCH  20  21
ENDBRANCH  19  20
ENDBRANCH  18  19
ENDBRANCH  17  18
ENDBRANCH   1  17
TORSDOF 26
ENDMDL
MODEL 8
REMARK VINA RESULT:    -2.895      4.177      7.884
REMARK INTER + INTRA:         -12.519
REMARK INTER:                  -7.942
REMARK INTRA:                  -4.578
REMARK UNBOUND:                -5.224
REMARK SMILES CCCCCCCCCCCCCCCCCCCCCCCCCCCC(=O)[O-]
REMARK SMILES IDX 15 1 16 2 17 3 18 4 19 5 20 6 21 7 22 8 23 9 24 10 25 11
REMARK SMILES IDX 26 12 27 13 28 14 29 15 30 16 14 17 13 18 12 19 11 20 10 21
REMARK SMILES IDX 9 22 8 23 7 24 6 25 5 26 4 27 3 28 2 29 1 30
REMARK H PARENT
REMARK Flexibility Score: inf
ROOT
ATOM      1  C   UNL     1     -18.447 -26.731  -2.684  1.00  0.00     0.000 C 
ENDROOT
BRANCH   1   2
ATOM      2  C   UNL     1     -19.220 -27.222  -1.451  1.00  0.00     0.000 C 
BRANCH   2   3
ATOM      3  C   UNL     1     -18.377 -28.215  -0.637  1.00  0.00     0.000 C 
BRANCH   3   4
ATOM      4  C   UNL     1     -19.025 -29.605  -0.537  1.00  0.00     0.000 C 
BRANCH   4   5
ATOM      5  C   UNL     1     -20.335 -29.703  -1.338  1.00  0.00     0.000 C 
BRANCH   5   6
ATOM      6  C   UNL     1     -21.542 -30.063  -0.455  1.00  0.00     0.000 C 
BRANCH   6   7
ATOM      7  C   UNL     1     -22.862 -29.493  -1.001  1.00  0.00     0.000 C 
BRANCH   7   8
ATOM      8  C   UNL     1     -22.647 -28.474  -2.134  1.00  0.00     0.000 C 
BRANCH   8   9
ATOM      9  C   UNL     1     -23.086 -27.030  -1.811  1.00  0.00     0.000 C 
BRANCH   9  10
ATOM     10  C   UNL     1     -23.542 -26.794  -0.360  1.00  0.00     0.000 C 
BRANCH  10  11
ATOM     11  C   UNL     1     -22.669 -25.772   0.382  1.00  0.00     0.000 C 
BRANCH  11  12
ATOM     12  C   UNL     1     -21.555 -26.471   1.174  1.00  0.00     0.006 C 
BRANCH  12  13
ATOM     13  C   UNL     1     -22.141 -27.470   2.178  1.00  0.00     0.053 C 
BRANCH  13  14
ATOM     14  C   UNL     1     -22.033 -26.944   3.575  1.00  0.00     0.041 C 
ATOM     15  O   UNL     1     -22.996 -26.316   4.093  1.00  0.00    -0.550 OA
ATOM     16  O   UNL     1     -20.864 -27.133   4.303  1.00  0.00    -0.550 OA
ENDBRANCH  13  14
ENDBRANCH  12  13
ENDBRANCH  11  12
ENDBRANCH  10  11
ENDBRANCH   9  10
ENDBRANCH   8   9
ENDBRANCH   7   8
ENDBRANCH   6   7
ENDBRANCH   5   6
ENDBRANCH   4   5
ENDBRANCH   3   4
ENDBRANCH   2   3
ENDBRANCH   1   2
BRANCH   1  17
ATOM     17  C   UNL     1     -19.355 -26.073  -3.735  1.00  0.00     0.000 C 
BRANCH  17  18
ATOM     18  C   UNL     1     -19.988 -27.052  -4.743  1.00  0.00     0.000 C 
BRANCH  18  19
ATOM     19  C   UNL     1     -21.406 -26.645  -5.196  1.00  0.00     0.000 C 
BRANCH  19  20
ATOM     20  C   UNL     1     -21.618 -25.122  -5.149  1.00  0.00     0.000 C 
BRANCH  20  21
ATOM     21  C   UNL     1     -22.954 -24.734  -4.481  1.00  0.00     0.000 C 
BRANCH  21  22
ATOM     22  C   UNL     1     -22.846 -23.537  -3.517  1.00  0.00    -0.000 C 
BRANCH  22  23
ATOM     23  C   UNL     1     -21.555 -23.494  -2.682  1.00  0.00    -0.000 C 
BRANCH  23  24
ATOM     24  C   UNL     1     -20.677 -22.249  -2.914  1.00  0.00    -0.000 C 
BRANCH  24  25
ATOM     25  C   UNL     1     -20.876 -21.601  -4.301  1.00  0.00    -0.000 C 
BRANCH  25  26
ATOM     26  C   UNL     1     -19.653 -21.790  -5.215  1.00  0.00    -0.000 C 
BRANCH  26  27
ATOM     27  C   UNL     1     -18.479 -20.874  -4.832  1.00  0.00    -0.000 C 
BRANCH  27  28
ATOM     28  C   UNL     1     -18.880 -19.390  -4.769  1.00  0.00    -0.000 C 
BRANCH  28  29
ATOM     29  C   UNL     1     -18.689 -18.787  -3.368  1.00  0.00    -0.003 C 
ATOM     30  C   UNL     1     -17.719 -17.606  -3.362  1.00  0.00     0.004 C 
ENDBRANCH  28  29
ENDBRANCH  27  28
ENDBRANCH  26  27
ENDBRANCH  25  26
ENDBRANCH  24  25
ENDBRANCH  23  24
ENDBRANCH  22  23
ENDBRANCH  21  22
ENDBRANCH  20  21
ENDBRANCH  19  20
ENDBRANCH  18  19
ENDBRANCH  17  18
ENDBRANCH   1  17
TORSDOF 26
ENDMDL
MODEL 9
REMARK VINA RESULT:    -2.889      3.060      5.006
REMARK INTER + INTRA:         -12.505
REMARK INTER:                  -7.280
REMARK INTRA:                  -5.225
REMARK UNBOUND:                -5.224
REMARK SMILES CCCCCCCCCCCCCCCCCCCCCCCCCCCC(=O)[O-]
REMARK SMILES IDX 15 1 16 2 17 3 18 4 19 5 20 6 21 7 22 8 23 9 24 10 25 11
REMARK SMILES IDX 26 12 27 13 28 14 29 15 30 16 14 17 13 18 12 19 11 20 10 21
REMARK SMILES IDX 9 22 8 23 7 24 6 25 5 26 4 27 3 28 2 29 1 30
REMARK H PARENT
REMARK Flexibility Score: inf
ROOT
ATOM      1  C   UNL     1     -22.474 -27.037  -4.227  1.00  0.00     0.000 C 
ENDROOT
BRANCH   1   2
ATOM      2  C   UNL     1     -22.793 -26.377  -2.877  1.00  0.00     0.000 C 
BRANCH   2   3
ATOM      3  C   UNL     1     -23.907 -27.142  -2.146  1.00  0.00     0.000 C 
BRANCH   3   4
ATOM      4  C   UNL     1     -23.537 -27.488  -0.694  1.00  0.00     0.000 C 
BRANCH   4   5
ATOM      5  C   UNL     1     -22.522 -26.501  -0.093  1.00  0.00     0.000 C 
BRANCH   5   6
ATOM      6  C   UNL     1     -23.054 -25.801   1.169  1.00  0.00     0.000 C 
BRANCH   6   7
ATOM      7  C   UNL     1     -24.367 -25.041   0.912  1.00  0.00     0.000 C 
BRANCH   7   8
ATOM      8  C   UNL     1     -24.238 -23.528   1.170  1.00  0.00     0.000 C 
BRANCH   8   9
ATOM      9  C   UNL     1     -23.984 -22.668  -0.086  1.00  0.00     0.000 C 
BRANCH   9  10
ATOM     10  C   UNL     1     -25.179 -22.545  -1.048  1.00  0.00     0.000 C 
BRANCH  10  11
ATOM     11  C   UNL     1     -25.025 -23.413  -2.305  1.00  0.00     0.000 C 
BRANCH  11  12
ATOM     12  C   UNL     1     -25.641 -22.723  -3.530  1.00  0.00     0.006 C 
BRANCH  12  13
ATOM     13  C   UNL     1     -27.018 -23.311  -3.855  1.00  0.00     0.053 C 
BRANCH  13  14
ATOM     14  C   UNL     1     -28.053 -22.232  -3.922  1.00  0.00     0.041 C 
ATOM     15  O   UNL     1     -28.135 -21.373  -3.003  1.00  0.00    -0.550 OA
ATOM     16  O   UNL     1     -28.938 -22.181  -4.993  1.00  0.00    -0.550 OA
ENDBRANCH  13  14
ENDBRANCH  12  13
ENDBRANCH  11  12
ENDBRANCH  10  11
ENDBRANCH   9  10
ENDBRANCH   8   9
ENDBRANCH   7   8
ENDBRANCH   6   7
ENDBRANCH   5   6
ENDBRANCH   4   5
ENDBRANCH   3   4
ENDBRANCH   2   3
ENDBRANCH   1   2
BRANCH   1  17
ATOM     17  C   UNL     1     -22.179 -28.541  -4.101  1.00  0.00     0.000 C 
BRANCH  17  18
ATOM     18  C   UNL     1     -20.719 -28.937  -4.393  1.00  0.00     0.000 C 
BRANCH  18  19
ATOM     19  C   UNL     1     -20.087 -29.826  -3.300  1.00  0.00     0.000 C 
BRANCH  19  20
ATOM     20  C   UNL     1     -20.812 -29.691  -1.950  1.00  0.00     0.000 C 
BRANCH  20  21
ATOM     21  C   UNL     1     -19.833 -29.665  -0.756  1.00  0.00     0.000 C 
BRANCH  21  22
ATOM     22  C   UNL     1     -19.341 -28.254  -0.384  1.00  0.00    -0.000 C 
BRANCH  22  23
ATOM     23  C   UNL     1     -17.884 -27.952  -0.776  1.00  0.00    -0.000 C 
BRANCH  23  24
ATOM     24  C   UNL     1     -17.720 -27.150  -2.081  1.00  0.00    -0.000 C 
BRANCH  24  25
ATOM     25  C   UNL     1     -18.974 -26.340  -2.473  1.00  0.00    -0.000 C 
BRANCH  25  26
ATOM     26  C   UNL     1     -18.893 -25.793  -3.908  1.00  0.00    -0.000 C 
BRANCH  26  27
ATOM     27  C   UNL     1     -19.697 -24.496  -4.095  1.00  0.00    -0.000 C 
BRANCH  27  28
ATOM     28  C   UNL     1     -20.027 -23.805  -2.760  1.00  0.00    -0.000 C 
BRANCH  28  29
ATOM     29  C   UNL     1     -21.356 -23.034  -2.808  1.00  0.00    -0.003 C 
ATOM     30  C   UNL     1     -21.908 -22.901  -4.227  1.00  0.00     0.004 C 
ENDBRANCH  28  29
ENDBRANCH  27  28
ENDBRANCH  26  27
ENDBRANCH  25  26
ENDBRANCH  24  25
ENDBRANCH  23  24
ENDBRANCH  22  23
ENDBRANCH  21  22
ENDBRANCH  20  21
ENDBRANCH  19  20
ENDBRANCH  18  19
ENDBRANCH  17  18
ENDBRANCH   1  17
TORSDOF 26
ENDMDL
