MODEL 1
REMARK VINA RESULT:    -7.403      0.000      0.000
REMARK INTER + INTRA:          -9.252
REMARK INTER:                  -8.917
REMARK INTRA:                  -0.334
REMARK UNBOUND:                -0.334
REMARK SMILES Oc1cc(O)c2cc(O)c(-c3ccc(O)c(O)c3)[o+]c2c1
REMARK SMILES IDX 10 1 19 2 20 3 21 4 2 5 3 6 4 7 6 8 7 9 8 10 11 11 12 12
REMARK SMILES IDX 13 13 14 14 18 15 16 16 15 17 17 19 9 21 1 23 5 25
REMARK H PARENT 15 18 17 20 9 22 1 24 5 26
REMARK Flexibility Score: inf
ROOT
ATOM      1  C   UNL     1      60.306  -2.112   2.857  1.00  0.00     0.402 A 
ATOM      2  O   UNL     1      59.058  -2.558   2.744  1.00  0.00    -0.202 OA
ATOM      3  C   UNL     1      58.190  -2.562   3.751  1.00  0.00     0.368 A 
ATOM      4  C   UNL     1      56.899  -3.048   3.534  1.00  0.00     0.162 A 
ATOM      5  C   UNL     1      55.966  -3.061   4.571  1.00  0.00     0.128 A 
ATOM      6  C   UNL     1      56.324  -2.582   5.837  1.00  0.00     0.093 A 
ATOM      7  C   UNL     1      57.613  -2.089   6.080  1.00  0.00     0.136 A 
ATOM      8  C   UNL     1      58.565  -2.077   5.028  1.00  0.00     0.125 A 
ATOM      9  C   UNL     1      59.881  -1.614   5.182  1.00  0.00     0.078 A 
ATOM     10  C   UNL     1      60.765  -1.638   4.099  1.00  0.00     0.223 A 
ENDROOT
BRANCH   1  11
ATOM     11  C   UNL     1      61.175  -2.152   1.658  1.00  0.00     0.087 A 
ATOM     12  C   UNL     1      61.870  -3.316   1.296  1.00  0.00     0.022 A 
ATOM     13  C   UNL     1      62.702  -3.322   0.176  1.00  0.00     0.051 A 
ATOM     14  C   UNL     1      62.867  -2.168  -0.598  1.00  0.00     0.157 A 
ATOM     15  C   UNL     1      61.356  -0.986   0.897  1.00  0.00     0.068 A 
ATOM     16  C   UNL     1      62.188  -0.982  -0.230  1.00  0.00     0.158 A 
BRANCH  14  17
ATOM     17  O   UNL     1      63.709  -2.242  -1.709  1.00  0.00    -0.504 OA
ATOM     18  H   UNL     1      64.561  -1.710  -1.808  1.00  0.00     0.293 HD
ENDBRANCH  14  17
BRANCH  16  19
ATOM     19  O   UNL     1      62.310   0.210  -0.946  1.00  0.00    -0.504 OA
ATOM     20  H   UNL     1      63.169   0.526  -1.374  1.00  0.00     0.293 HD
ENDBRANCH  16  19
ENDBRANCH   1  11
BRANCH  10  21
ATOM     21  O   UNL     1      62.087  -1.225   4.266  1.00  0.00    -0.500 OA
ATOM     22  H   UNL     1      62.446  -0.392   3.816  1.00  0.00     0.294 HD
ENDBRANCH  10  21
BRANCH   5  23
ATOM     23  O   UNL     1      54.683  -3.550   4.336  1.00  0.00    -0.507 OA
ATOM     24  H   UNL     1      54.010  -3.029   3.786  1.00  0.00     0.293 HD
ENDBRANCH   5  23
BRANCH   7  25
ATOM     25  O   UNL     1      57.893  -1.627   7.369  1.00  0.00    -0.507 OA
ATOM     26  H   UNL     1      58.023  -2.223   8.174  1.00  0.00     0.293 HD
ENDBRANCH   7  25
TORSDOF 6
ENDMDL
MODEL 2
REMARK VINA RESULT:    -7.022      1.896      7.206
REMARK INTER + INTRA:          -8.793
REMARK INTER:                  -8.845
REMARK INTRA:                   0.053
REMARK UNBOUND:                -0.334
REMARK SMILES Oc1cc(O)c2cc(O)c(-c3ccc(O)c(O)c3)[o+]c2c1
REMARK SMILES IDX 10 1 19 2 20 3 21 4 2 5 3 6 4 7 6 8 7 9 8 10 11 11 12 12
REMARK SMILES IDX 13 13 14 14 18 15 16 16 15 17 17 19 9 21 1 23 5 25
REMARK H PARENT 15 18 17 20 9 22 1 24 5 26
REMARK Flexibility Score: inf
ROOT
ATOM      1  C   UNL     1      59.221  -1.958   4.215  1.00  0.00     0.402 A 
ATOM      2  O   UNL     1      59.996  -0.960   4.630  1.00  0.00    -0.202 OA
ATOM      3  C   UNL     1      61.033  -0.503   3.935  1.00  0.00     0.368 A 
ATOM      4  C   UNL     1      61.786   0.553   4.452  1.00  0.00     0.162 A 
ATOM      5  C   UNL     1      62.878   1.056   3.744  1.00  0.00     0.128 A 
ATOM      6  C   UNL     1      63.220   0.500   2.505  1.00  0.00     0.093 A 
ATOM      7  C   UNL     1      62.480  -0.560   1.964  1.00  0.00     0.136 A 
ATOM      8  C   UNL     1      61.372  -1.074   2.684  1.00  0.00     0.125 A 
ATOM      9  C   UNL     1      60.581  -2.141   2.226  1.00  0.00     0.078 A 
ATOM     10  C   UNL     1      59.506  -2.598   2.994  1.00  0.00     0.223 A 
ENDROOT
BRANCH   1  11
ATOM     11  C   UNL     1      58.089  -2.371   5.076  1.00  0.00     0.087 A 
ATOM     12  C   UNL     1      58.254  -2.574   6.455  1.00  0.00     0.022 A 
ATOM     13  C   UNL     1      57.178  -2.986   7.241  1.00  0.00     0.051 A 
ATOM     14  C   UNL     1      55.921  -3.215   6.670  1.00  0.00     0.157 A 
ATOM     15  C   UNL     1      56.835  -2.622   4.496  1.00  0.00     0.068 A 
ATOM     16  C   UNL     1      55.749  -3.034   5.277  1.00  0.00     0.158 A 
BRANCH  14  17
ATOM     17  O   UNL     1      54.885  -3.620   7.513  1.00  0.00    -0.504 OA
ATOM     18  H   UNL     1      55.024  -3.967   8.451  1.00  0.00     0.293 HD
ENDBRANCH  14  17
BRANCH  16  19
ATOM     19  O   UNL     1      54.529  -3.252   4.633  1.00  0.00    -0.504 OA
ATOM     20  H   UNL     1      53.787  -3.826   5.009  1.00  0.00     0.293 HD
ENDBRANCH  16  19
ENDBRANCH   1  11
BRANCH  10  21
ATOM     21  O   UNL     1      58.753  -3.690   2.563  1.00  0.00    -0.500 OA
ATOM     22  H   UNL     1      58.312  -4.326   3.217  1.00  0.00     0.294 HD
ENDBRANCH  10  21
BRANCH   5  23
ATOM     23  O   UNL     1      63.617   2.109   4.277  1.00  0.00    -0.507 OA
ATOM     24  H   UNL     1      64.104   2.769   3.682  1.00  0.00     0.293 HD
ENDBRANCH   5  23
BRANCH   7  25
ATOM     25  O   UNL     1      62.884  -1.058   0.722  1.00  0.00    -0.507 OA
ATOM     26  H   UNL     1      62.579  -1.938   0.334  1.00  0.00     0.293 HD
ENDBRANCH   7  25
TORSDOF 6
ENDMDL
MODEL 3
REMARK VINA RESULT:    -6.992      2.616      3.964
REMARK INTER + INTRA:          -8.757
REMARK INTER:                  -8.451
REMARK INTRA:                  -0.307
REMARK UNBOUND:                -0.334
REMARK SMILES Oc1cc(O)c2cc(O)c(-c3ccc(O)c(O)c3)[o+]c2c1
REMARK SMILES IDX 10 1 19 2 20 3 21 4 2 5 3 6 4 7 6 8 7 9 8 10 11 11 12 12
REMARK SMILES IDX 13 13 14 14 18 15 16 16 15 17 17 19 9 21 1 23 5 25
REMARK H PARENT 15 18 17 20 9 22 1 24 5 26
REMARK Flexibility Score: inf
ROOT
ATOM      1  C   UNL     1      60.057  -1.591   4.174  1.00  0.00     0.402 A 
ATOM      2  O   UNL     1      59.162  -1.593   5.157  1.00  0.00    -0.202 OA
ATOM      3  C   UNL     1      57.945  -2.114   5.035  1.00  0.00     0.368 A 
ATOM      4  C   UNL     1      57.074  -2.071   6.127  1.00  0.00     0.162 A 
ATOM      5  C   UNL     1      55.793  -2.613   6.030  1.00  0.00     0.128 A 
ATOM      6  C   UNL     1      55.375  -3.204   4.831  1.00  0.00     0.093 A 
ATOM      7  C   UNL     1      56.229  -3.259   3.721  1.00  0.00     0.136 A 
ATOM      8  C   UNL     1      57.532  -2.707   3.817  1.00  0.00     0.125 A 
ATOM      9  C   UNL     1      58.451  -2.706   2.755  1.00  0.00     0.078 A 
ATOM     10  C   UNL     1      59.717  -2.137   2.923  1.00  0.00     0.223 A 
ENDROOT
BRANCH   1  11
ATOM     11  C   UNL     1      61.385  -0.988   4.436  1.00  0.00     0.087 A 
ATOM     12  C   UNL     1      62.526  -1.784   4.620  1.00  0.00     0.022 A 
ATOM     13  C   UNL     1      63.761  -1.194   4.891  1.00  0.00     0.051 A 
ATOM     14  C   UNL     1      63.882   0.197   4.993  1.00  0.00     0.157 A 
ATOM     15  C   UNL     1      61.498   0.405   4.561  1.00  0.00     0.068 A 
ATOM     16  C   UNL     1      62.733   1.007   4.831  1.00  0.00     0.158 A 
BRANCH  14  17
ATOM     17  O   UNL     1      65.147   0.724   5.260  1.00  0.00    -0.504 OA
ATOM     18  H   UNL     1      65.406   1.155   6.136  1.00  0.00     0.293 HD
ENDBRANCH  14  17
BRANCH  16  19
ATOM     19  O   UNL     1      62.773   2.399   4.929  1.00  0.00    -0.504 OA
ATOM     20  H   UNL     1      63.626   2.939   4.958  1.00  0.00     0.293 HD
ENDBRANCH  16  19
ENDBRANCH   1  11
BRANCH  10  21
ATOM     21  O   UNL     1      60.610  -2.092   1.852  1.00  0.00    -0.500 OA
ATOM     22  H   UNL     1      61.184  -1.277   1.670  1.00  0.00     0.294 HD
ENDBRANCH  10  21
BRANCH   5  23
ATOM     23  O   UNL     1      54.939  -2.561   7.129  1.00  0.00    -0.507 OA
ATOM     24  H   UNL     1      53.951  -2.769   7.043  1.00  0.00     0.293 HD
ENDBRANCH   5  23
BRANCH   7  25
ATOM     25  O   UNL     1      55.739  -3.868   2.562  1.00  0.00    -0.507 OA
ATOM     26  H   UNL     1      56.227  -3.889   1.679  1.00  0.00     0.293 HD
ENDBRANCH   7  25
TORSDOF 6
ENDMDL
MODEL 4
REMARK VINA RESULT:    -6.682      4.303      7.516
REMARK INTER + INTRA:          -8.384
REMARK INTER:                  -8.110
REMARK INTRA:                  -0.274
REMARK UNBOUND:                -0.334
REMARK SMILES Oc1cc(O)c2cc(O)c(-c3ccc(O)c(O)c3)[o+]c2c1
REMARK SMILES IDX 10 1 19 2 20 3 21 4 2 5 3 6 4 7 6 8 7 9 8 10 11 11 12 12
REMARK SMILES IDX 13 13 14 14 18 15 16 16 15 17 17 19 9 21 1 23 5 25
REMARK H PARENT 15 18 17 20 9 22 1 24 5 26
REMARK Flexibility Score: inf
ROOT
ATOM      1  C   UNL     1      61.979   2.000   4.151  1.00  0.00     0.402 A 
ATOM      2  O   UNL     1      61.759   0.691   4.070  1.00  0.00    -0.202 OA
ATOM      3  C   UNL     1      61.667   0.036   2.917  1.00  0.00     0.368 A 
ATOM      4  C   UNL     1      61.437  -1.342   2.934  1.00  0.00     0.162 A 
ATOM      5  C   UNL     1      61.339  -2.056   1.740  1.00  0.00     0.128 A 
ATOM      6  C   UNL     1      61.472  -1.389   0.516  1.00  0.00     0.093 A 
ATOM      7  C   UNL     1      61.703  -0.008   0.472  1.00  0.00     0.136 A 
ATOM      8  C   UNL     1      61.801   0.721   1.685  1.00  0.00     0.125 A 
ATOM      9  C   UNL     1      62.018   2.108   1.738  1.00  0.00     0.078 A 
ATOM     10  C   UNL     1      62.098   2.759   2.972  1.00  0.00     0.223 A 
ENDROOT
BRANCH   1  11
ATOM     11  C   UNL     1      62.071   2.613   5.496  1.00  0.00     0.087 A 
ATOM     12  C   UNL     1      61.037   3.413   6.008  1.00  0.00     0.022 A 
ATOM     13  C   UNL     1      61.158   4.000   7.268  1.00  0.00     0.051 A 
ATOM     14  C   UNL     1      62.312   3.812   8.038  1.00  0.00     0.157 A 
ATOM     15  C   UNL     1      63.239   2.441   6.255  1.00  0.00     0.068 A 
ATOM     16  C   UNL     1      63.369   3.025   7.521  1.00  0.00     0.158 A 
BRANCH  14  17
ATOM     17  O   UNL     1      62.367   4.422   9.292  1.00  0.00    -0.504 OA
ATOM     18  H   UNL     1      63.223   4.593   9.799  1.00  0.00     0.293 HD
ENDBRANCH  14  17
BRANCH  16  19
ATOM     19  O   UNL     1      64.554   2.800   8.224  1.00  0.00    -0.504 OA
ATOM     20  H   UNL     1      64.610   2.736   9.231  1.00  0.00     0.293 HD
ENDBRANCH  16  19
ENDBRANCH   1  11
BRANCH  10  21
ATOM     21  O   UNL     1      62.263   4.144   3.023  1.00  0.00    -0.500 OA
ATOM     22  H   UNL     1      62.657   4.662   2.247  1.00  0.00     0.294 HD
ENDBRANCH  10  21
BRANCH   5  23
ATOM     23  O   UNL     1      61.109  -3.430   1.777  1.00  0.00    -0.507 OA
ATOM     24  H   UNL     1      61.695  -4.079   1.266  1.00  0.00     0.293 HD
ENDBRANCH   5  23
BRANCH   7  25
ATOM     25  O   UNL     1      61.827   0.584  -0.788  1.00  0.00    -0.507 OA
ATOM     26  H   UNL     1      62.145   0.102  -1.616  1.00  0.00     0.293 HD
ENDBRANCH   7  25
TORSDOF 6
ENDMDL
MODEL 5
REMARK VINA RESULT:    -6.595      1.486      2.129
REMARK INTER + INTRA:          -8.278
REMARK INTER:                  -7.997
REMARK INTRA:                  -0.281
REMARK UNBOUND:                -0.334
REMARK SMILES Oc1cc(O)c2cc(O)c(-c3ccc(O)c(O)c3)[o+]c2c1
REMARK SMILES IDX 10 1 19 2 20 3 21 4 2 5 3 6 4 7 6 8 7 9 8 10 11 11 12 12
REMARK SMILES IDX 13 13 14 14 18 15 16 16 15 17 17 19 9 21 1 23 5 25
REMARK H PARENT 15 18 17 20 9 22 1 24 5 26
REMARK Flexibility Score: inf
ROOT
ATOM      1  C   UNL     1      59.451  -2.261   3.252  1.00  0.00     0.402 A 
ATOM      2  O   UNL     1      58.304  -2.497   2.621  1.00  0.00    -0.202 OA
ATOM      3  C   UNL     1      57.157  -2.727   3.253  1.00  0.00     0.368 A 
ATOM      4  C   UNL     1      56.002  -2.962   2.503  1.00  0.00     0.162 A 
ATOM      5  C   UNL     1      54.784  -3.203   3.138  1.00  0.00     0.128 A 
ATOM      6  C   UNL     1      54.717  -3.208   4.537  1.00  0.00     0.093 A 
ATOM      7  C   UNL     1      55.861  -2.975   5.312  1.00  0.00     0.136 A 
ATOM      8  C   UNL     1      57.101  -2.732   4.668  1.00  0.00     0.125 A 
ATOM      9  C   UNL     1      58.300  -2.502   5.363  1.00  0.00     0.078 A 
ATOM     10  C   UNL     1      59.486  -2.275   4.658  1.00  0.00     0.223 A 
ENDROOT
BRANCH   1  11
ATOM     11  C   UNL     1      60.660  -2.010   2.435  1.00  0.00     0.087 A 
ATOM     12  C   UNL     1      61.246  -0.736   2.368  1.00  0.00     0.022 A 
ATOM     13  C   UNL     1      62.371  -0.518   1.572  1.00  0.00     0.051 A 
ATOM     14  C   UNL     1      62.928  -1.559   0.821  1.00  0.00     0.157 A 
ATOM     15  C   UNL     1      61.202  -3.050   1.664  1.00  0.00     0.068 A 
ATOM     16  C   UNL     1      62.332  -2.842   0.864  1.00  0.00     0.158 A 
BRANCH  14  17
ATOM     17  O   UNL     1      64.057  -1.276   0.049  1.00  0.00    -0.504 OA
ATOM     18  H   UNL     1      64.899  -0.854   0.415  1.00  0.00     0.293 HD
ENDBRANCH  14  17
BRANCH  16  19
ATOM     19  O   UNL     1      62.823  -3.926   0.135  1.00  0.00    -0.504 OA
ATOM     20  H   UNL     1      63.218  -3.852  -0.792  1.00  0.00     0.293 HD
ENDBRANCH  16  19
ENDBRANCH   1  11
BRANCH  10  21
ATOM     21  O   UNL     1      60.686  -2.096   5.349  1.00  0.00    -0.500 OA
ATOM     22  H   UNL     1      60.708  -1.956   6.351  1.00  0.00     0.294 HD
ENDBRANCH  10  21
BRANCH   5  23
ATOM     23  O   UNL     1      53.643  -3.435   2.373  1.00  0.00    -0.507 OA
ATOM     24  H   UNL     1      53.227  -2.705   1.807  1.00  0.00     0.293 HD
ENDBRANCH   5  23
BRANCH   7  25
ATOM     25  O   UNL     1      55.711  -2.994   6.702  1.00  0.00    -0.507 OA
ATOM     26  H   UNL     1      56.041  -2.269   7.321  1.00  0.00     0.293 HD
ENDBRANCH   7  25
TORSDOF 6
ENDMDL
MODEL 6
REMARK VINA RESULT:    -6.410      4.457      8.407
REMARK INTER + INTRA:          -8.056
REMARK INTER:                  -7.706
REMARK INTRA:                  -0.349
REMARK UNBOUND:                -0.334
REMARK SMILES Oc1cc(O)c2cc(O)c(-c3ccc(O)c(O)c3)[o+]c2c1
REMARK SMILES IDX 10 1 19 2 20 3 21 4 2 5 3 6 4 7 6 8 7 9 8 10 11 11 12 12
REMARK SMILES IDX 13 13 14 14 18 15 16 16 15 17 17 19 9 21 1 23 5 25
REMARK H PARENT 15 18 17 20 9 22 1 24 5 26
REMARK Flexibility Score: inf
ROOT
ATOM      1  C   UNL     1      62.110   2.093   4.020  1.00  0.00     0.402 A 
ATOM      2  O   UNL     1      62.589   2.833   3.023  1.00  0.00    -0.202 OA
ATOM      3  C   UNL     1      62.600   2.431   1.756  1.00  0.00     0.368 A 
ATOM      4  C   UNL     1      63.121   3.281   0.778  1.00  0.00     0.162 A 
ATOM      5  C   UNL     1      63.143   2.888  -0.560  1.00  0.00     0.128 A 
ATOM      6  C   UNL     1      62.637   1.635  -0.927  1.00  0.00     0.093 A 
ATOM      7  C   UNL     1      62.109   0.764   0.036  1.00  0.00     0.136 A 
ATOM      8  C   UNL     1      62.088   1.160   1.397  1.00  0.00     0.125 A 
ATOM      9  C   UNL     1      61.590   0.350   2.430  1.00  0.00     0.078 A 
ATOM     10  C   UNL     1      61.607   0.807   3.751  1.00  0.00     0.223 A 
ENDROOT
BRANCH   1  11
ATOM     11  C   UNL     1      62.145   2.656   5.389  1.00  0.00     0.087 A 
ATOM     12  C   UNL     1      61.099   3.453   5.879  1.00  0.00     0.022 A 
ATOM     13  C   UNL     1      61.165   3.993   7.165  1.00  0.00     0.051 A 
ATOM     14  C   UNL     1      62.278   3.759   7.982  1.00  0.00     0.157 A 
ATOM     15  C   UNL     1      63.272   2.439   6.197  1.00  0.00     0.068 A 
ATOM     16  C   UNL     1      63.348   2.975   7.489  1.00  0.00     0.158 A 
BRANCH  14  17
ATOM     17  O   UNL     1      62.279   4.323   9.259  1.00  0.00    -0.504 OA
ATOM     18  H   UNL     1      61.702   5.105   9.531  1.00  0.00     0.293 HD
ENDBRANCH  14  17
BRANCH  16  19
ATOM     19  O   UNL     1      64.494   2.706   8.240  1.00  0.00    -0.504 OA
ATOM     20  H   UNL     1      65.065   1.881   8.123  1.00  0.00     0.293 HD
ENDBRANCH  16  19
ENDBRANCH   1  11
BRANCH  10  21
ATOM     21  O   UNL     1      61.159  -0.019   4.783  1.00  0.00    -0.500 OA
ATOM     22  H   UNL     1      60.717  -0.911   4.597  1.00  0.00     0.294 HD
ENDBRANCH  10  21
BRANCH   5  23
ATOM     23  O   UNL     1      63.668   3.749  -1.522  1.00  0.00    -0.507 OA
ATOM     24  H   UNL     1      63.132   4.530  -1.882  1.00  0.00     0.293 HD
ENDBRANCH   5  23
BRANCH   7  25
ATOM     25  O   UNL     1      61.622  -0.468  -0.410  1.00  0.00    -0.507 OA
ATOM     26  H   UNL     1      60.862  -0.972   0.023  1.00  0.00     0.293 HD
ENDBRANCH   7  25
TORSDOF 6
ENDMDL
MODEL 7
REMARK VINA RESULT:    -6.378      1.887      7.225
REMARK INTER + INTRA:          -8.018
REMARK INTER:                  -7.767
REMARK INTRA:                  -0.251
REMARK UNBOUND:                -0.334
REMARK SMILES Oc1cc(O)c2cc(O)c(-c3ccc(O)c(O)c3)[o+]c2c1
REMARK SMILES IDX 10 1 19 2 20 3 21 4 2 5 3 6 4 7 6 8 7 9 8 10 11 11 12 12
REMARK SMILES IDX 13 13 14 14 18 15 16 16 15 17 17 19 9 21 1 23 5 25
REMARK H PARENT 15 18 17 20 9 22 1 24 5 26
REMARK Flexibility Score: inf
ROOT
ATOM      1  C   UNL     1      60.994  -1.476   2.242  1.00  0.00     0.402 A 
ATOM      2  O   UNL     1      61.136  -0.183   1.961  1.00  0.00    -0.202 OA
ATOM      3  C   UNL     1      61.935   0.272   1.001  1.00  0.00     0.368 A 
ATOM      4  C   UNL     1      62.015   1.648   0.779  1.00  0.00     0.162 A 
ATOM      5  C   UNL     1      62.843   2.154  -0.224  1.00  0.00     0.128 A 
ATOM      6  C   UNL     1      63.598   1.278  -1.012  1.00  0.00     0.093 A 
ATOM      7  C   UNL     1      63.535  -0.107  -0.809  1.00  0.00     0.136 A 
ATOM      8  C   UNL     1      62.696  -0.624   0.211  1.00  0.00     0.125 A 
ATOM      9  C   UNL     1      62.579  -1.995   0.495  1.00  0.00     0.078 A 
ATOM     10  C   UNL     1      61.735  -2.429   1.521  1.00  0.00     0.223 A 
ENDROOT
BRANCH   1  11
ATOM     11  C   UNL     1      60.064  -1.858   3.330  1.00  0.00     0.087 A 
ATOM     12  C   UNL     1      60.371  -1.609   4.677  1.00  0.00     0.022 A 
ATOM     13  C   UNL     1      59.490  -2.000   5.686  1.00  0.00     0.051 A 
ATOM     14  C   UNL     1      58.293  -2.656   5.375  1.00  0.00     0.157 A 
ATOM     15  C   UNL     1      58.875  -2.536   3.017  1.00  0.00     0.068 A 
ATOM     16  C   UNL     1      57.984  -2.932   4.022  1.00  0.00     0.158 A 
BRANCH  14  17
ATOM     17  O   UNL     1      57.453  -3.016   6.431  1.00  0.00    -0.504 OA
ATOM     18  H   UNL     1      57.629  -2.781   7.397  1.00  0.00     0.293 HD
ENDBRANCH  14  17
BRANCH  16  19
ATOM     19  O   UNL     1      56.816  -3.591   3.635  1.00  0.00    -0.504 OA
ATOM     20  H   UNL     1      56.145  -3.214   2.980  1.00  0.00     0.293 HD
ENDBRANCH  16  19
ENDBRANCH   1  11
BRANCH  10  21
ATOM     21  O   UNL     1      61.658  -3.787   1.835  1.00  0.00    -0.500 OA
ATOM     22  H   UNL     1      62.388  -4.255   2.358  1.00  0.00     0.294 HD
ENDBRANCH  10  21
BRANCH   5  23
ATOM     23  O   UNL     1      62.910   3.530  -0.430  1.00  0.00    -0.507 OA
ATOM     24  H   UNL     1      63.349   4.146   0.244  1.00  0.00     0.293 HD
ENDBRANCH   5  23
BRANCH   7  25
ATOM     25  O   UNL     1      64.317  -0.915  -1.639  1.00  0.00    -0.507 OA
ATOM     26  H   UNL     1      64.133  -1.891  -1.823  1.00  0.00     0.293 HD
ENDBRANCH   7  25
TORSDOF 6
ENDMDL
MODEL 8
REMARK VINA RESULT:    -6.342      2.392      7.065
REMARK INTER + INTRA:          -7.974
REMARK INTER:                  -7.694
REMARK INTRA:                  -0.279
REMARK UNBOUND:                -0.334
REMARK SMILES Oc1cc(O)c2cc(O)c(-c3ccc(O)c(O)c3)[o+]c2c1
REMARK SMILES IDX 10 1 19 2 20 3 21 4 2 5 3 6 4 7 6 8 7 9 8 10 11 11 12 12
REMARK SMILES IDX 13 13 14 14 18 15 16 16 15 17 17 19 9 21 1 23 5 25
REMARK H PARENT 15 18 17 20 9 22 1 24 5 26
REMARK Flexibility Score: inf
ROOT
ATOM      1  C   UNL     1      61.223  -1.055   3.443  1.00  0.00     0.402 A 
ATOM      2  O   UNL     1      61.110  -0.035   2.598  1.00  0.00    -0.202 OA
ATOM      3  C   UNL     1      62.154   0.570   2.040  1.00  0.00     0.368 A 
ATOM      4  C   UNL     1      61.935   1.633   1.161  1.00  0.00     0.162 A 
ATOM      5  C   UNL     1      63.011   2.284   0.557  1.00  0.00     0.128 A 
ATOM      6  C   UNL     1      64.319   1.869   0.833  1.00  0.00     0.093 A 
ATOM      7  C   UNL     1      64.566   0.806   1.712  1.00  0.00     0.136 A 
ATOM      8  C   UNL     1      63.474   0.143   2.328  1.00  0.00     0.125 A 
ATOM      9  C   UNL     1      63.625  -0.922   3.230  1.00  0.00     0.078 A 
ATOM     10  C   UNL     1      62.500  -1.523   3.802  1.00  0.00     0.223 A 
ENDROOT
BRANCH   1  11
ATOM     11  C   UNL     1      59.982  -1.651   3.991  1.00  0.00     0.087 A 
ATOM     12  C   UNL     1      59.144  -2.453   3.201  1.00  0.00     0.022 A 
ATOM     13  C   UNL     1      57.968  -2.983   3.733  1.00  0.00     0.051 A 
ATOM     14  C   UNL     1      57.598  -2.717   5.056  1.00  0.00     0.157 A 
ATOM     15  C   UNL     1      59.603  -1.363   5.312  1.00  0.00     0.068 A 
ATOM     16  C   UNL     1      58.425  -1.891   5.855  1.00  0.00     0.158 A 
BRANCH  14  17
ATOM     17  O   UNL     1      56.412  -3.282   5.529  1.00  0.00    -0.504 OA
ATOM     18  H   UNL     1      55.694  -2.764   6.012  1.00  0.00     0.293 HD
ENDBRANCH  14  17
BRANCH  16  19
ATOM     19  O   UNL     1      58.118  -1.573   7.179  1.00  0.00    -0.504 OA
ATOM     20  H   UNL     1      57.727  -0.688   7.472  1.00  0.00     0.293 HD
ENDBRANCH  16  19
ENDBRANCH   1  11
BRANCH  10  21
ATOM     21  O   UNL     1      62.654  -2.548   4.736  1.00  0.00    -0.500 OA
ATOM     22  H   UNL     1      62.144  -2.552   5.611  1.00  0.00     0.294 HD
ENDBRANCH  10  21
BRANCH   5  23
ATOM     23  O   UNL     1      62.772   3.342  -0.317  1.00  0.00    -0.507 OA
ATOM     24  H   UNL     1      62.942   3.256  -1.311  1.00  0.00     0.293 HD
ENDBRANCH   5  23
BRANCH   7  25
ATOM     25  O   UNL     1      65.900   0.450   1.933  1.00  0.00    -0.507 OA
ATOM     26  H   UNL     1      66.379  -0.295   1.449  1.00  0.00     0.293 HD
ENDBRANCH   7  25
TORSDOF 6
ENDMDL
MODEL 9
REMARK VINA RESULT:    -6.339      1.375      6.736
REMARK INTER + INTRA:          -7.971
REMARK INTER:                  -8.454
REMARK INTRA:                   0.483
REMARK UNBOUND:                -0.334
REMARK SMILES Oc1cc(O)c2cc(O)c(-c3ccc(O)c(O)c3)[o+]c2c1
REMARK SMILES IDX 10 1 19 2 20 3 21 4 2 5 3 6 4 7 6 8 7 9 8 10 11 11 12 12
REMARK SMILES IDX 13 13 14 14 18 15 16 16 15 17 17 19 9 21 1 23 5 25
REMARK H PARENT 15 18 17 20 9 22 1 24 5 26
REMARK Flexibility Score: inf
ROOT
ATOM      1  C   UNL     1      58.793  -2.178   4.022  1.00  0.00     0.402 A 
ATOM      2  O   UNL     1      59.459  -2.221   2.872  1.00  0.00    -0.202 OA
ATOM      3  C   UNL     1      60.735  -1.867   2.754  1.00  0.00     0.368 A 
ATOM      4  C   UNL     1      61.350  -1.949   1.502  1.00  0.00     0.162 A 
ATOM      5  C   UNL     1      62.689  -1.588   1.349  1.00  0.00     0.128 A 
ATOM      6  C   UNL     1      63.422  -1.141   2.455  1.00  0.00     0.093 A 
ATOM      7  C   UNL     1      62.827  -1.049   3.721  1.00  0.00     0.136 A 
ATOM      8  C   UNL     1      61.466  -1.414   3.879  1.00  0.00     0.125 A 
ATOM      9  C   UNL     1      60.785  -1.343   5.105  1.00  0.00     0.078 A 
ATOM     10  C   UNL     1      59.439  -1.715   5.183  1.00  0.00     0.223 A 
ENDROOT
BRANCH   1  11
ATOM     11  C   UNL     1      57.376  -2.608   4.027  1.00  0.00     0.087 A 
ATOM     12  C   UNL     1      56.700  -2.916   2.836  1.00  0.00     0.022 A 
ATOM     13  C   UNL     1      55.358  -3.296   2.864  1.00  0.00     0.051 A 
ATOM     14  C   UNL     1      54.659  -3.364   4.075  1.00  0.00     0.157 A 
ATOM     15  C   UNL     1      56.672  -2.653   5.241  1.00  0.00     0.068 A 
ATOM     16  C   UNL     1      55.325  -3.034   5.280  1.00  0.00     0.158 A 
BRANCH  14  17
ATOM     17  O   UNL     1      53.320  -3.756   4.034  1.00  0.00    -0.504 OA
ATOM     18  H   UNL     1      53.000  -4.634   3.652  1.00  0.00     0.293 HD
ENDBRANCH  14  17
BRANCH  16  19
ATOM     19  O   UNL     1      54.693  -3.069   6.524  1.00  0.00    -0.504 OA
ATOM     20  H   UNL     1      55.172  -3.238   7.397  1.00  0.00     0.293 HD
ENDBRANCH  16  19
ENDBRANCH   1  11
BRANCH  10  21
ATOM     21  O   UNL     1      58.750  -1.597   6.390  1.00  0.00    -0.500 OA
ATOM     22  H   UNL     1      58.599  -2.392   6.998  1.00  0.00     0.294 HD
ENDBRANCH  10  21
BRANCH   5  23
ATOM     23  O   UNL     1      63.285  -1.676   0.092  1.00  0.00    -0.507 OA
ATOM     24  H   UNL     1      64.066  -2.297  -0.081  1.00  0.00     0.293 HD
ENDBRANCH   5  23
BRANCH   7  25
ATOM     25  O   UNL     1      63.626  -0.598   4.775  1.00  0.00    -0.507 OA
ATOM     26  H   UNL     1      64.583  -0.294   4.676  1.00  0.00     0.293 HD
ENDBRANCH   7  25
TORSDOF 6
ENDMDL
