MODEL 1
REMARK VINA RESULT:    25.061      0.000      0.000
REMARK INTER + INTRA:          31.257
REMARK INTER:                  30.921
REMARK INTRA:                   0.336
REMARK UNBOUND:                 0.336
REMARK SMILES Oc1cc(O)c2cc(O)c(-c3cc(O)c(O)c(O)c3)[o+]c2c1
REMARK SMILES IDX 10 1 20 2 21 3 22 4 2 5 3 6 4 7 6 8 7 9 8 10 11 11 12 12
REMARK SMILES IDX 13 13 19 14 15 15 17 16 14 17 16 19 18 21 9 23 1 25 5 27
REMARK H PARENT 14 18 16 20 18 22 9 24 1 26 5 28
REMARK Flexibility Score: inf
ROOT
ATOM      1  C   UNL     1      10.953  26.590  13.272  1.00  0.00     0.402 A 
ATOM      2  O   UNL     1      12.014  27.309  13.624  1.00  0.00    -0.202 OA
ATOM      3  C   UNL     1      13.182  27.246  12.991  1.00  0.00     0.368 A 
ATOM      4  C   UNL     1      14.240  28.044  13.434  1.00  0.00     0.162 A 
ATOM      5  C   UNL     1      15.477  27.999  12.785  1.00  0.00     0.128 A 
ATOM      6  C   UNL     1      15.657  27.153  11.688  1.00  0.00     0.093 A 
ATOM      7  C   UNL     1      14.612  26.343  11.225  1.00  0.00     0.136 A 
ATOM      8  C   UNL     1      13.354  26.384  11.882  1.00  0.00     0.125 A 
ATOM      9  C   UNL     1      12.256  25.598  11.496  1.00  0.00     0.078 A 
ATOM     10  C   UNL     1      11.049  25.688  12.195  1.00  0.00     0.223 A 
ENDROOT
BRANCH   1  11
ATOM     11  C   UNL     1       9.704  26.758  14.050  1.00  0.00     0.091 A 
ATOM     12  C   UNL     1       8.766  25.715  14.083  1.00  0.00     0.068 A 
ATOM     13  C   UNL     1       7.584  25.840  14.827  1.00  0.00     0.162 A 
ATOM     14  C   UNL     1       9.462  27.919  14.804  1.00  0.00     0.068 A 
ATOM     15  C   UNL     1       7.341  27.013  15.560  1.00  0.00     0.200 A 
ATOM     16  C   UNL     1       8.284  28.049  15.551  1.00  0.00     0.162 A 
BRANCH  13  17
ATOM     17  O   UNL     1       6.654  24.802  14.840  1.00  0.00    -0.504 OA
ATOM     18  H   UNL     1       5.657  24.982  14.867  1.00  0.00     0.293 HD
ENDBRANCH  13  17
BRANCH  15  19
ATOM     19  O   UNL     1       6.172  27.162  16.307  1.00  0.00    -0.502 OA
ATOM     20  H   UNL     1       6.188  27.341  17.304  1.00  0.00     0.293 HD
ENDBRANCH  15  19
BRANCH  16  21
ATOM     21  O   UNL     1       8.044  29.205  16.293  1.00  0.00    -0.504 OA
ATOM     22  H   UNL     1       7.405  29.208  17.079  1.00  0.00     0.293 HD
ENDBRANCH  16  21
ENDBRANCH   1  11
BRANCH  10  23
ATOM     23  O   UNL     1       9.974  24.873  11.844  1.00  0.00    -0.500 OA
ATOM     24  H   UNL     1       9.194  25.224  11.301  1.00  0.00     0.294 HD
ENDBRANCH  10  23
BRANCH   5  25
ATOM     25  O   UNL     1      16.536  28.792  13.220  1.00  0.00    -0.507 OA
ATOM     26  H   UNL     1      16.902  29.547  12.652  1.00  0.00     0.293 HD
ENDBRANCH   5  25
BRANCH   7  27
ATOM     27  O   UNL     1      14.872  25.527  10.120  1.00  0.00    -0.507 OA
ATOM     28  H   UNL     1      14.996  25.866   9.177  1.00  0.00     0.293 HD
ENDBRANCH   7  27
TORSDOF 7
ENDMDL
