MODEL 1
REMARK VINA RESULT:    -4.292      0.000      0.000
REMARK INTER + INTRA:         -10.267
REMARK INTER:                  -7.805
REMARK INTRA:                  -2.462
REMARK UNBOUND:                -2.462
REMARK SMILES CCCCCCCCCCCCCCCC(=O)[O-]
REMARK SMILES IDX 9 1 10 2 11 3 12 4 13 5 14 6 15 7 16 8 17 9 18 10 8 11 7 12
REMARK SMILES IDX 6 13 5 14 4 15 3 16 2 17 1 18
REMARK H PARENT
REMARK Flexibility Score: inf
ROOT
ATOM      1  C   UNL     1      54.857  39.775  47.303  1.00  0.00     0.000 C 
ENDROOT
BRANCH   1   2
ATOM      2  C   UNL     1      54.691  38.738  48.425  1.00  0.00     0.000 C 
BRANCH   2   3
ATOM      3  C   UNL     1      55.641  38.995  49.608  1.00  0.00     0.000 C 
BRANCH   3   4
ATOM      4  C   UNL     1      54.912  38.994  50.962  1.00  0.00     0.000 C 
BRANCH   4   5
ATOM      5  C   UNL     1      53.392  38.826  50.816  1.00  0.00     0.000 C 
BRANCH   5   6
ATOM      6  C   UNL     1      52.650  40.041  51.395  1.00  0.00     0.006 C 
BRANCH   6   7
ATOM      7  C   UNL     1      53.463  40.753  52.485  1.00  0.00     0.053 C 
BRANCH   7   8
ATOM      8  C   UNL     1      53.048  42.184  52.643  1.00  0.00     0.041 C 
ATOM      9  O   UNL     1      53.818  43.007  53.203  1.00  0.00    -0.550 OA
ATOM     10  O   UNL     1      51.799  42.600  52.201  1.00  0.00    -0.550 OA
ENDBRANCH   7   8
ENDBRANCH   6   7
ENDBRANCH   5   6
ENDBRANCH   4   5
ENDBRANCH   3   4
ENDBRANCH   2   3
ENDBRANCH   1   2
BRANCH   1  11
ATOM     11  C   UNL     1      53.530  40.103  46.596  1.00  0.00     0.000 C 
BRANCH  11  12
ATOM     12  C   UNL     1      52.333  40.156  47.562  1.00  0.00    -0.000 C 
BRANCH  12  13
ATOM     13  C   UNL     1      51.978  41.560  48.088  1.00  0.00    -0.000 C 
BRANCH  13  14
ATOM     14  C   UNL     1      52.259  42.673  47.064  1.00  0.00    -0.000 C 
BRANCH  14  15
ATOM     15  C   UNL     1      52.750  43.979  47.717  1.00  0.00    -0.000 C 
BRANCH  15  16
ATOM     16  C   UNL     1      52.995  43.903  49.234  1.00  0.00    -0.000 C 
BRANCH  16  17
ATOM     17  C   UNL     1      54.481  44.011  49.609  1.00  0.00    -0.003 C 
ATOM     18  C   UNL     1      55.150  42.640  49.608  1.00  0.00     0.004 C 
ENDBRANCH  16  17
ENDBRANCH  15  16
ENDBRANCH  14  15
ENDBRANCH  13  14
ENDBRANCH  12  13
ENDBRANCH  11  12
ENDBRANCH   1  11
TORSDOF 14
ENDMDL
MODEL 2
REMARK VINA RESULT:    -4.264      1.208      4.227
REMARK INTER + INTRA:         -10.215
REMARK INTER:                  -8.307
REMARK INTRA:                  -1.908
REMARK UNBOUND:                -2.462
REMARK SMILES CCCCCCCCCCCCCCCC(=O)[O-]
REMARK SMILES IDX 9 1 10 2 11 3 12 4 13 5 14 6 15 7 16 8 17 9 18 10 8 11 7 12
REMARK SMILES IDX 6 13 5 14 4 15 3 16 2 17 1 18
REMARK H PARENT
REMARK Flexibility Score: inf
ROOT
ATOM      1  C   UNL     1      52.055  43.914  46.549  1.00  0.00     0.000 C 
ENDROOT
BRANCH   1   2
ATOM      2  C   UNL     1      53.098  44.890  47.113  1.00  0.00     0.000 C 
BRANCH   2   3
ATOM      3  C   UNL     1      53.146  44.876  48.652  1.00  0.00     0.000 C 
BRANCH   3   4
ATOM      4  C   UNL     1      54.426  44.224  49.198  1.00  0.00     0.000 C 
BRANCH   4   5
ATOM      5  C   UNL     1      54.149  43.247  50.351  1.00  0.00     0.000 C 
BRANCH   5   6
ATOM      6  C   UNL     1      52.662  43.261  50.734  1.00  0.00     0.006 C 
BRANCH   6   7
ATOM      7  C   UNL     1      52.406  42.594  52.093  1.00  0.00     0.053 C 
BRANCH   7   8
ATOM      8  C   UNL     1      52.648  41.116  52.042  1.00  0.00     0.041 C 
ATOM      9  O   UNL     1      51.916  40.379  51.331  1.00  0.00    -0.550 OA
ATOM     10  O   UNL     1      53.660  40.550  52.806  1.00  0.00    -0.550 OA
ENDBRANCH   7   8
ENDBRANCH   6   7
ENDBRANCH   5   6
ENDBRANCH   4   5
ENDBRANCH   3   4
ENDBRANCH   2   3
ENDBRANCH   1   2
BRANCH   1  11
ATOM     11  C   UNL     1      52.524  42.449  46.592  1.00  0.00     0.000 C 
BRANCH  11  12
ATOM     12  C   UNL     1      51.838  41.632  47.701  1.00  0.00    -0.000 C 
BRANCH  12  13
ATOM     13  C   UNL     1      52.264  40.154  47.783  1.00  0.00    -0.000 C 
BRANCH  13  14
ATOM     14  C   UNL     1      53.343  39.782  46.752  1.00  0.00    -0.000 C 
BRANCH  14  15
ATOM     15  C   UNL     1      54.697  39.433  47.398  1.00  0.00    -0.000 C 
BRANCH  15  16
ATOM     16  C   UNL     1      54.779  39.668  48.917  1.00  0.00    -0.000 C 
BRANCH  16  17
ATOM     17  C   UNL     1      55.452  38.510  49.669  1.00  0.00    -0.003 C 
ATOM     18  C   UNL     1      54.499  37.883  50.682  1.00  0.00     0.004 C 
ENDBRANCH  16  17
ENDBRANCH  15  16
ENDBRANCH  14  15
ENDBRANCH  13  14
ENDBRANCH  12  13
ENDBRANCH  11  12
ENDBRANCH   1  11
TORSDOF 14
ENDMDL
MODEL 3
REMARK VINA RESULT:    -4.215      0.911      4.275
REMARK INTER + INTRA:         -10.127
REMARK INTER:                  -7.797
REMARK INTRA:                  -2.331
REMARK UNBOUND:                -2.462
REMARK SMILES CCCCCCCCCCCCCCCC(=O)[O-]
REMARK SMILES IDX 9 1 10 2 11 3 12 4 13 5 14 6 15 7 16 8 17 9 18 10 8 11 7 12
REMARK SMILES IDX 6 13 5 14 4 15 3 16 2 17 1 18
REMARK H PARENT
REMARK Flexibility Score: inf
ROOT
ATOM      1  C   UNL     1      51.858  41.854  47.711  1.00  0.00     0.000 C 
ENDROOT
BRANCH   1   2
ATOM      2  C   UNL     1      52.635  42.602  46.617  1.00  0.00     0.000 C 
BRANCH   2   3
ATOM      3  C   UNL     1      53.001  44.038  47.031  1.00  0.00     0.000 C 
BRANCH   3   4
ATOM      4  C   UNL     1      52.976  44.237  48.555  1.00  0.00     0.000 C 
BRANCH   4   5
ATOM      5  C   UNL     1      54.384  44.308  49.167  1.00  0.00     0.000 C 
BRANCH   5   6
ATOM      6  C   UNL     1      54.431  43.577  50.517  1.00  0.00     0.006 C 
BRANCH   6   7
ATOM      7  C   UNL     1      53.073  42.973  50.899  1.00  0.00     0.053 C 
BRANCH   7   8
ATOM      8  C   UNL     1      53.036  42.548  52.335  1.00  0.00     0.041 C 
ATOM      9  O   UNL     1      52.148  41.751  52.737  1.00  0.00    -0.550 OA
ATOM     10  O   UNL     1      53.963  43.056  53.236  1.00  0.00    -0.550 OA
ENDBRANCH   7   8
ENDBRANCH   6   7
ENDBRANCH   5   6
ENDBRANCH   4   5
ENDBRANCH   3   4
ENDBRANCH   2   3
ENDBRANCH   1   2
BRANCH   1  11
ATOM     11  C   UNL     1      52.310  40.391  47.867  1.00  0.00     0.000 C 
BRANCH  11  12
ATOM     12  C   UNL     1      53.295  39.948  46.772  1.00  0.00    -0.000 C 
BRANCH  12  13
ATOM     13  C   UNL     1      54.683  39.511  47.278  1.00  0.00    -0.000 C 
BRANCH  13  14
ATOM     14  C   UNL     1      55.381  40.591  48.121  1.00  0.00    -0.000 C 
BRANCH  14  15
ATOM     15  C   UNL     1      55.534  40.192  49.601  1.00  0.00    -0.000 C 
BRANCH  15  16
ATOM     16  C   UNL     1      55.823  38.701  49.852  1.00  0.00    -0.000 C 
BRANCH  16  17
ATOM     17  C   UNL     1      54.689  37.988  50.605  1.00  0.00    -0.003 C 
ATOM     18  C   UNL     1      53.589  38.968  50.999  1.00  0.00     0.004 C 
ENDBRANCH  16  17
ENDBRANCH  15  16
ENDBRANCH  14  15
ENDBRANCH  13  14
ENDBRANCH  12  13
ENDBRANCH  11  12
ENDBRANCH   1  11
TORSDOF 14
ENDMDL
MODEL 4
REMARK VINA RESULT:    -4.182      1.927      4.451
REMARK INTER + INTRA:         -10.065
REMARK INTER:                  -7.736
REMARK INTRA:                  -2.329
REMARK UNBOUND:                -2.462
REMARK SMILES CCCCCCCCCCCCCCCC(=O)[O-]
REMARK SMILES IDX 9 1 10 2 11 3 12 4 13 5 14 6 15 7 16 8 17 9 18 10 8 11 7 12
REMARK SMILES IDX 6 13 5 14 4 15 3 16 2 17 1 18
REMARK H PARENT
REMARK Flexibility Score: inf
ROOT
ATOM      1  C   UNL     1      55.006  40.673  48.024  1.00  0.00     0.000 C 
ENDROOT
BRANCH   1   2
ATOM      2  C   UNL     1      54.057  39.727  47.272  1.00  0.00     0.000 C 
BRANCH   2   3
ATOM      3  C   UNL     1      52.578  40.116  47.444  1.00  0.00     0.000 C 
BRANCH   3   4
ATOM      4  C   UNL     1      52.403  41.519  48.048  1.00  0.00     0.000 C 
BRANCH   4   5
ATOM      5  C   UNL     1      51.886  42.544  47.027  1.00  0.00     0.000 C 
BRANCH   5   6
ATOM      6  C   UNL     1      52.529  43.919  47.258  1.00  0.00     0.006 C 
BRANCH   6   7
ATOM      7  C   UNL     1      53.137  44.048  48.661  1.00  0.00     0.053 C 
BRANCH   7   8
ATOM      8  C   UNL     1      54.582  44.440  48.609  1.00  0.00     0.041 C 
ATOM      9  O   UNL     1      55.099  45.080  49.562  1.00  0.00    -0.550 OA
ATOM     10  O   UNL     1      55.348  44.126  47.494  1.00  0.00    -0.550 OA
ENDBRANCH   7   8
ENDBRANCH   6   7
ENDBRANCH   5   6
ENDBRANCH   4   5
ENDBRANCH   3   4
ENDBRANCH   2   3
ENDBRANCH   1   2
BRANCH   1  11
ATOM     11  C   UNL     1      55.722  39.987  49.200  1.00  0.00     0.000 C 
BRANCH  11  12
ATOM     12  C   UNL     1      55.326  38.509  49.364  1.00  0.00    -0.000 C 
BRANCH  12  13
ATOM     13  C   UNL     1      54.619  38.164  50.688  1.00  0.00    -0.000 C 
BRANCH  13  14
ATOM     14  C   UNL     1      53.245  38.839  50.829  1.00  0.00    -0.000 C 
BRANCH  14  15
ATOM     15  C   UNL     1      53.243  39.989  51.853  1.00  0.00    -0.000 C 
BRANCH  15  16
ATOM     16  C   UNL     1      52.063  40.971  51.737  1.00  0.00    -0.000 C 
BRANCH  16  17
ATOM     17  C   UNL     1      52.502  42.442  51.745  1.00  0.00    -0.003 C 
ATOM     18  C   UNL     1      54.019  42.563  51.851  1.00  0.00     0.004 C 
ENDBRANCH  16  17
ENDBRANCH  15  16
ENDBRANCH  14  15
ENDBRANCH  13  14
ENDBRANCH  12  13
ENDBRANCH  11  12
ENDBRANCH   1  11
TORSDOF 14
ENDMDL
MODEL 5
REMARK VINA RESULT:    -4.176      1.208      2.219
REMARK INTER + INTRA:         -10.056
REMARK INTER:                  -7.632
REMARK INTRA:                  -2.424
REMARK UNBOUND:                -2.462
REMARK SMILES CCCCCCCCCCCCCCCC(=O)[O-]
REMARK SMILES IDX 9 1 10 2 11 3 12 4 13 5 14 6 15 7 16 8 17 9 18 10 8 11 7 12
REMARK SMILES IDX 6 13 5 14 4 15 3 16 2 17 1 18
REMARK H PARENT
REMARK Flexibility Score: inf
ROOT
ATOM      1  C   UNL     1      55.443  39.803  49.824  1.00  0.00     0.000 C 
ENDROOT
BRANCH   1   2
ATOM      2  C   UNL     1      54.624  38.541  50.139  1.00  0.00     0.000 C 
BRANCH   2   3
ATOM      3  C   UNL     1      53.447  38.824  51.089  1.00  0.00     0.000 C 
BRANCH   3   4
ATOM      4  C   UNL     1      52.269  39.511  50.380  1.00  0.00     0.000 C 
BRANCH   4   5
ATOM      5  C   UNL     1      51.837  40.813  51.073  1.00  0.00     0.000 C 
BRANCH   5   6
ATOM      6  C   UNL     1      52.658  41.051  52.349  1.00  0.00     0.006 C 
BRANCH   6   7
ATOM      7  C   UNL     1      52.824  42.545  52.662  1.00  0.00     0.053 C 
BRANCH   7   8
ATOM      8  C   UNL     1      54.264  42.918  52.850  1.00  0.00     0.041 C 
ATOM      9  O   UNL     1      55.142  42.465  52.070  1.00  0.00    -0.550 OA
ATOM     10  O   UNL     1      54.637  43.740  53.905  1.00  0.00    -0.550 OA
ENDBRANCH   7   8
ENDBRANCH   6   7
ENDBRANCH   5   6
ENDBRANCH   4   5
ENDBRANCH   3   4
ENDBRANCH   2   3
ENDBRANCH   1   2
BRANCH   1  11
ATOM     11  C   UNL     1      55.380  40.197  48.338  1.00  0.00     0.000 C 
BRANCH  11  12
ATOM     12  C   UNL     1      54.603  39.182  47.480  1.00  0.00    -0.000 C 
BRANCH  12  13
ATOM     13  C   UNL     1      53.349  39.739  46.783  1.00  0.00    -0.000 C 
BRANCH  13  14
ATOM     14  C   UNL     1      53.347  41.274  46.686  1.00  0.00    -0.000 C 
BRANCH  14  15
ATOM     15  C   UNL     1      52.203  41.926  47.486  1.00  0.00    -0.000 C 
BRANCH  15  16
ATOM     16  C   UNL     1      52.458  43.375  47.934  1.00  0.00    -0.000 C 
BRANCH  16  17
ATOM     17  C   UNL     1      53.296  43.468  49.218  1.00  0.00    -0.003 C 
ATOM     18  C   UNL     1      54.600  44.222  48.971  1.00  0.00     0.004 C 
ENDBRANCH  16  17
ENDBRANCH  15  16
ENDBRANCH  14  15
ENDBRANCH  13  14
ENDBRANCH  12  13
ENDBRANCH  11  12
ENDBRANCH   1  11
TORSDOF 14
ENDMDL
MODEL 6
REMARK VINA RESULT:    -4.175      2.137      4.022
REMARK INTER + INTRA:         -10.054
REMARK INTER:                  -7.784
REMARK INTRA:                  -2.270
REMARK UNBOUND:                -2.462
REMARK SMILES CCCCCCCCCCCCCCCC(=O)[O-]
REMARK SMILES IDX 9 1 10 2 11 3 12 4 13 5 14 6 15 7 16 8 17 9 18 10 8 11 7 12
REMARK SMILES IDX 6 13 5 14 4 15 3 16 2 17 1 18
REMARK H PARENT
REMARK Flexibility Score: inf
ROOT
ATOM      1  C   UNL     1      52.060  42.573  47.077  1.00  0.00     0.000 C 
ENDROOT
BRANCH   1   2
ATOM      2  C   UNL     1      53.049  41.469  46.674  1.00  0.00     0.000 C 
BRANCH   2   3
ATOM      3  C   UNL     1      52.952  40.231  47.584  1.00  0.00     0.000 C 
BRANCH   3   4
ATOM      4  C   UNL     1      51.909  40.399  48.701  1.00  0.00     0.000 C 
BRANCH   4   5
ATOM      5  C   UNL     1      52.284  39.637  49.981  1.00  0.00     0.000 C 
BRANCH   5   6
ATOM      6  C   UNL     1      53.788  39.756  50.268  1.00  0.00     0.006 C 
BRANCH   6   7
ATOM      7  C   UNL     1      54.458  38.385  50.433  1.00  0.00     0.053 C 
BRANCH   7   8
ATOM      8  C   UNL     1      55.806  38.498  51.078  1.00  0.00     0.041 C 
ATOM      9  O   UNL     1      55.922  39.036  52.210  1.00  0.00    -0.550 OA
ATOM     10  O   UNL     1      56.936  38.038  50.415  1.00  0.00    -0.550 OA
ENDBRANCH   7   8
ENDBRANCH   6   7
ENDBRANCH   5   6
ENDBRANCH   4   5
ENDBRANCH   3   4
ENDBRANCH   2   3
ENDBRANCH   1   2
BRANCH   1  11
ATOM     11  C   UNL     1      52.676  43.981  46.999  1.00  0.00     0.000 C 
BRANCH  11  12
ATOM     12  C   UNL     1      52.976  44.582  48.384  1.00  0.00    -0.000 C 
BRANCH  12  13
ATOM     13  C   UNL     1      54.268  44.075  49.051  1.00  0.00    -0.000 C 
BRANCH  13  14
ATOM     14  C   UNL     1      54.020  43.427  50.424  1.00  0.00    -0.000 C 
BRANCH  14  15
ATOM     15  C   UNL     1      52.524  43.263  50.750  1.00  0.00    -0.000 C 
BRANCH  15  16
ATOM     16  C   UNL     1      52.215  42.617  52.112  1.00  0.00    -0.000 C 
BRANCH  16  17
ATOM     17  C   UNL     1      53.462  42.447  52.992  1.00  0.00    -0.003 C 
ATOM     18  C   UNL     1      53.407  41.141  53.779  1.00  0.00     0.004 C 
ENDBRANCH  16  17
ENDBRANCH  15  16
ENDBRANCH  14  15
ENDBRANCH  13  14
ENDBRANCH  12  13
ENDBRANCH  11  12
ENDBRANCH   1  11
TORSDOF 14
ENDMDL
MODEL 7
REMARK VINA RESULT:    -4.170      2.508      4.325
REMARK INTER + INTRA:         -10.045
REMARK INTER:                  -7.668
REMARK INTRA:                  -2.377
REMARK UNBOUND:                -2.462
REMARK SMILES CCCCCCCCCCCCCCCC(=O)[O-]
REMARK SMILES IDX 9 1 10 2 11 3 12 4 13 5 14 6 15 7 16 8 17 9 18 10 8 11 7 12
REMARK SMILES IDX 6 13 5 14 4 15 3 16 2 17 1 18
REMARK H PARENT
REMARK Flexibility Score: inf
ROOT
ATOM      1  C   UNL     1      54.017  42.605  51.113  1.00  0.00     0.000 C 
ENDROOT
BRANCH   1   2
ATOM      2  C   UNL     1      52.548  42.399  51.510  1.00  0.00     0.000 C 
BRANCH   2   3
ATOM      3  C   UNL     1      52.169  40.911  51.616  1.00  0.00     0.000 C 
BRANCH   3   4
ATOM      4  C   UNL     1      53.396  39.999  51.770  1.00  0.00     0.000 C 
BRANCH   4   5
ATOM      5  C   UNL     1      53.331  38.759  50.864  1.00  0.00     0.000 C 
BRANCH   5   6
ATOM      6  C   UNL     1      54.739  38.211  50.585  1.00  0.00     0.006 C 
BRANCH   6   7
ATOM      7  C   UNL     1      55.796  38.824  51.514  1.00  0.00     0.053 C 
BRANCH   7   8
ATOM      8  C   UNL     1      57.188  38.536  51.040  1.00  0.00     0.041 C 
ATOM      9  O   UNL     1      57.433  38.454  49.808  1.00  0.00    -0.550 OA
ATOM     10  O   UNL     1      58.207  38.327  51.961  1.00  0.00    -0.550 OA
ENDBRANCH   7   8
ENDBRANCH   6   7
ENDBRANCH   5   6
ENDBRANCH   4   5
ENDBRANCH   3   4
ENDBRANCH   2   3
ENDBRANCH   1   2
BRANCH   1  11
ATOM     11  C   UNL     1      54.181  43.546  49.906  1.00  0.00     0.000 C 
BRANCH  11  12
ATOM     12  C   UNL     1      52.858  43.807  49.165  1.00  0.00    -0.000 C 
BRANCH  12  13
ATOM     13  C   UNL     1      52.848  43.397  47.680  1.00  0.00    -0.000 C 
BRANCH  13  14
ATOM     14  C   UNL     1      51.914  42.210  47.392  1.00  0.00    -0.000 C 
BRANCH  14  15
ATOM     15  C   UNL     1      52.404  40.893  48.024  1.00  0.00    -0.000 C 
BRANCH  15  16
ATOM     16  C   UNL     1      52.963  39.857  47.033  1.00  0.00    -0.000 C 
BRANCH  16  17
ATOM     17  C   UNL     1      54.459  40.050  46.743  1.00  0.00    -0.003 C 
ATOM     18  C   UNL     1      55.200  40.545  47.980  1.00  0.00     0.004 C 
ENDBRANCH  16  17
ENDBRANCH  15  16
ENDBRANCH  14  15
ENDBRANCH  13  14
ENDBRANCH  12  13
ENDBRANCH  11  12
ENDBRANCH   1  11
TORSDOF 14
ENDMDL
MODEL 8
REMARK VINA RESULT:    -4.087      1.280      4.217
REMARK INTER + INTRA:          -9.894
REMARK INTER:                  -7.304
REMARK INTRA:                  -2.590
REMARK UNBOUND:                -2.462
REMARK SMILES CCCCCCCCCCCCCCCC(=O)[O-]
REMARK SMILES IDX 9 1 10 2 11 3 12 4 13 5 14 6 15 7 16 8 17 9 18 10 8 11 7 12
REMARK SMILES IDX 6 13 5 14 4 15 3 16 2 17 1 18
REMARK H PARENT
REMARK Flexibility Score: inf
ROOT
ATOM      1  C   UNL     1      53.380  40.052  46.744  1.00  0.00     0.000 C 
ENDROOT
BRANCH   1   2
ATOM      2  C   UNL     1      52.402  40.691  47.741  1.00  0.00     0.000 C 
BRANCH   2   3
ATOM      3  C   UNL     1      52.193  42.194  47.481  1.00  0.00     0.000 C 
BRANCH   3   4
ATOM      4  C   UNL     1      52.618  43.065  48.674  1.00  0.00     0.000 C 
BRANCH   4   5
ATOM      5  C   UNL     1      54.111  43.426  48.644  1.00  0.00     0.000 C 
BRANCH   5   6
ATOM      6  C   UNL     1      54.556  44.025  49.986  1.00  0.00     0.006 C 
BRANCH   6   7
ATOM      7  C   UNL     1      55.817  43.343  50.536  1.00  0.00     0.053 C 
BRANCH   7   8
ATOM      8  C   UNL     1      55.745  43.155  52.021  1.00  0.00     0.041 C 
ATOM      9  O   UNL     1      54.973  43.869  52.713  1.00  0.00    -0.550 OA
ATOM     10  O   UNL     1      56.554  42.213  52.643  1.00  0.00    -0.550 OA
ENDBRANCH   7   8
ENDBRANCH   6   7
ENDBRANCH   5   6
ENDBRANCH   4   5
ENDBRANCH   3   4
ENDBRANCH   2   3
ENDBRANCH   1   2
BRANCH   1  11
ATOM     11  C   UNL     1      54.493  39.246  47.436  1.00  0.00     0.000 C 
BRANCH  11  12
ATOM     12  C   UNL     1      55.407  40.117  48.316  1.00  0.00    -0.000 C 
BRANCH  12  13
ATOM     13  C   UNL     1      55.446  39.728  49.805  1.00  0.00    -0.000 C 
BRANCH  13  14
ATOM     14  C   UNL     1      54.573  38.504  50.128  1.00  0.00    -0.000 C 
BRANCH  14  15
ATOM     15  C   UNL     1      53.425  38.826  51.104  1.00  0.00    -0.000 C 
BRANCH  15  16
ATOM     16  C   UNL     1      53.372  40.282  51.597  1.00  0.00    -0.000 C 
BRANCH  16  17
ATOM     17  C   UNL     1      51.965  40.892  51.518  1.00  0.00    -0.003 C 
ATOM     18  C   UNL     1      51.943  42.304  52.097  1.00  0.00     0.004 C 
ENDBRANCH  16  17
ENDBRANCH  15  16
ENDBRANCH  14  15
ENDBRANCH  13  14
ENDBRANCH  12  13
ENDBRANCH  11  12
ENDBRANCH   1  11
TORSDOF 14
ENDMDL
MODEL 9
REMARK VINA RESULT:    -4.061      1.545      2.679
REMARK INTER + INTRA:          -9.847
REMARK INTER:                  -7.521
REMARK INTRA:                  -2.326
REMARK UNBOUND:                -2.462
REMARK SMILES CCCCCCCCCCCCCCCC(=O)[O-]
REMARK SMILES IDX 9 1 10 2 11 3 12 4 13 5 14 6 15 7 16 8 17 9 18 10 8 11 7 12
REMARK SMILES IDX 6 13 5 14 4 15 3 16 2 17 1 18
REMARK H PARENT
REMARK Flexibility Score: inf
ROOT
ATOM      1  C   UNL     1      53.453  39.994  46.869  1.00  0.00     0.000 C 
ENDROOT
BRANCH   1   2
ATOM      2  C   UNL     1      54.532  39.218  47.640  1.00  0.00     0.000 C 
BRANCH   2   3
ATOM      3  C   UNL     1      54.692  39.712  49.089  1.00  0.00     0.000 C 
BRANCH   3   4
ATOM      4  C   UNL     1      54.536  38.581  50.119  1.00  0.00     0.000 C 
BRANCH   4   5
ATOM      5  C   UNL     1      55.825  38.322  50.915  1.00  0.00     0.000 C 
BRANCH   5   6
ATOM      6  C   UNL     1      56.240  39.571  51.707  1.00  0.00     0.006 C 
BRANCH   6   7
ATOM      7  C   UNL     1      55.220  39.934  52.795  1.00  0.00     0.053 C 
BRANCH   7   8
ATOM      8  C   UNL     1      55.699  41.067  53.651  1.00  0.00     0.041 C 
ATOM      9  O   UNL     1      54.870  41.838  54.201  1.00  0.00    -0.550 OA
ATOM     10  O   UNL     1      57.060  41.288  53.814  1.00  0.00    -0.550 OA
ENDBRANCH   7   8
ENDBRANCH   6   7
ENDBRANCH   5   6
ENDBRANCH   4   5
ENDBRANCH   3   4
ENDBRANCH   2   3
ENDBRANCH   1   2
BRANCH   1  11
ATOM     11  C   UNL     1      52.239  40.351  47.744  1.00  0.00     0.000 C 
BRANCH  11  12
ATOM     12  C   UNL     1      51.890  41.850  47.703  1.00  0.00    -0.000 C 
BRANCH  12  13
ATOM     13  C   UNL     1      53.055  42.782  47.322  1.00  0.00    -0.000 C 
BRANCH  13  14
ATOM     14  C   UNL     1      53.789  43.357  48.546  1.00  0.00    -0.000 C 
BRANCH  14  15
ATOM     15  C   UNL     1      52.884  43.476  49.787  1.00  0.00    -0.000 C 
BRANCH  15  16
ATOM     16  C   UNL     1      53.364  42.700  51.027  1.00  0.00    -0.000 C 
BRANCH  16  17
ATOM     17  C   UNL     1      52.209  42.132  51.865  1.00  0.00    -0.003 C 
ATOM     18  C   UNL     1      51.825  40.732  51.396  1.00  0.00     0.004 C 
ENDBRANCH  16  17
ENDBRANCH  15  16
ENDBRANCH  14  15
ENDBRANCH  13  14
ENDBRANCH  12  13
ENDBRANCH  11  12
ENDBRANCH   1  11
TORSDOF 14
ENDMDL
