MODEL 1
REMARK VINA RESULT:    -4.112      0.000      0.000
REMARK INTER + INTRA:          -5.149
REMARK INTER:                  -4.833
REMARK INTRA:                  -0.316
REMARK UNBOUND:                -0.316
REMARK SMILES O=c1cc(-c2ccc(O)c(O)c2)oc2cc(O)cc(O)c12
REMARK SMILES IDX 4 1 3 2 2 3 1 4 21 5 19 6 18 7 16 8 15 9 14 10 13 11 5 12
REMARK SMILES IDX 6 13 7 14 8 15 12 16 10 17 9 18 11 20 20 22 17 24
REMARK H PARENT 9 19 11 21 20 23 17 25
REMARK Flexibility Score: inf
ROOT
ATOM      1  C   UNL     1      -1.316   8.695  -8.652  1.00  0.00     0.138 A 
ATOM      2  C   UNL     1      -2.384   8.820  -9.551  1.00  0.00     0.100 A 
ATOM      3  C   UNL     1      -2.646  10.055 -10.144  1.00  0.00     0.197 A 
ATOM      4  O   UNL     1      -3.571  10.121 -10.994  1.00  0.00    -0.289 OA
ATOM      5  C   UNL     1      -1.853  11.179  -9.810  1.00  0.00     0.107 A 
ATOM      6  C   UNL     1      -2.053  12.495 -10.321  1.00  0.00     0.134 A 
ATOM      7  C   UNL     1      -1.134  13.504 -10.009  1.00  0.00     0.093 A 
ATOM      8  C   UNL     1      -0.055  13.257  -9.156  1.00  0.00     0.123 A 
ATOM      9  C   UNL     1       0.119  11.988  -8.609  1.00  0.00     0.094 A 
ATOM     10  C   UNL     1      -0.762  10.952  -8.929  1.00  0.00     0.146 A 
ATOM     11  O   UNL     1      -0.553   9.752  -8.396  1.00  0.00    -0.456 OA
ENDROOT
BRANCH   1  12
ATOM     12  C   UNL     1      -0.993   7.405  -7.991  1.00  0.00     0.021 A 
ATOM     13  C   UNL     1      -1.590   6.196  -8.397  1.00  0.00     0.016 A 
ATOM     14  C   UNL     1      -1.276   4.998  -7.751  1.00  0.00     0.051 A 
ATOM     15  C   UNL     1      -0.368   4.986  -6.684  1.00  0.00     0.157 A 
ATOM     16  C   UNL     1      -0.093   7.386  -6.910  1.00  0.00     0.062 A 
ATOM     17  C   UNL     1       0.224   6.187  -6.261  1.00  0.00     0.158 A 
BRANCH  15  18
ATOM     18  O   UNL     1      -0.056   3.788  -6.043  1.00  0.00    -0.504 OA
ATOM     19  H   UNL     1      -0.760   3.081  -5.867  1.00  0.00     0.293 HD
ENDBRANCH  15  18
BRANCH  17  20
ATOM     20  O   UNL     1       1.129   6.210  -5.201  1.00  0.00    -0.504 OA
ATOM     21  H   UNL     1       1.208   7.006  -4.579  1.00  0.00     0.293 HD
ENDBRANCH  17  20
ENDBRANCH   1  12
BRANCH   6  22
ATOM     22  O   UNL     1      -3.144  12.869 -11.113  1.00  0.00    -0.507 OA
ATOM     23  H   UNL     1      -3.354  13.813 -11.395  1.00  0.00     0.293 HD
ENDBRANCH   6  22
BRANCH   8  24
ATOM     24  O   UNL     1       0.846  14.271  -8.838  1.00  0.00    -0.508 OA
ATOM     25  H   UNL     1       0.926  14.632  -7.894  1.00  0.00     0.293 HD
ENDBRANCH   8  24
TORSDOF 5
ENDMDL
MODEL 2
REMARK VINA RESULT:    -3.982      1.417      2.908
REMARK INTER + INTRA:          -4.997
REMARK INTER:                  -4.704
REMARK INTRA:                  -0.293
REMARK UNBOUND:                -0.316
REMARK SMILES O=c1cc(-c2ccc(O)c(O)c2)oc2cc(O)cc(O)c12
REMARK SMILES IDX 4 1 3 2 2 3 1 4 21 5 19 6 18 7 16 8 15 9 14 10 13 11 5 12
REMARK SMILES IDX 6 13 7 14 8 15 12 16 10 17 9 18 11 20 20 22 17 24
REMARK H PARENT 9 19 11 21 20 23 17 25
REMARK Flexibility Score: inf
ROOT
ATOM      1  C   UNL     1      -1.589   8.707  -8.712  1.00  0.00     0.138 A 
ATOM      2  C   UNL     1      -1.268   9.948  -8.144  1.00  0.00     0.100 A 
ATOM      3  C   UNL     1      -1.645  11.123  -8.796  1.00  0.00     0.197 A 
ATOM      4  O   UNL     1      -1.398  12.220  -8.231  1.00  0.00    -0.289 OA
ATOM      5  C   UNL     1      -2.318  11.054 -10.039  1.00  0.00     0.107 A 
ATOM      6  C   UNL     1      -2.713  12.186 -10.812  1.00  0.00     0.134 A 
ATOM      7  C   UNL     1      -3.477  11.997 -11.971  1.00  0.00     0.093 A 
ATOM      8  C   UNL     1      -3.808  10.714 -12.415  1.00  0.00     0.123 A 
ATOM      9  C   UNL     1      -3.380   9.600 -11.695  1.00  0.00     0.094 A 
ATOM     10  C   UNL     1      -2.646   9.757 -10.517  1.00  0.00     0.146 A 
ATOM     11  O   UNL     1      -2.270   8.669  -9.853  1.00  0.00    -0.456 OA
ENDROOT
BRANCH   1  12
ATOM     12  C   UNL     1      -1.213   7.426  -8.062  1.00  0.00     0.021 A 
ATOM     13  C   UNL     1      -1.761   6.198  -8.476  1.00  0.00     0.016 A 
ATOM     14  C   UNL     1      -1.396   5.008  -7.840  1.00  0.00     0.051 A 
ATOM     15  C   UNL     1      -0.486   5.025  -6.775  1.00  0.00     0.157 A 
ATOM     16  C   UNL     1      -0.310   7.436  -6.983  1.00  0.00     0.062 A 
ATOM     17  C   UNL     1       0.058   6.246  -6.345  1.00  0.00     0.158 A 
BRANCH  15  18
ATOM     18  O   UNL     1      -0.124   3.836  -6.144  1.00  0.00    -0.504 OA
ATOM     19  H   UNL     1       0.260   3.055  -6.663  1.00  0.00     0.293 HD
ENDBRANCH  15  18
BRANCH  17  20
ATOM     20  O   UNL     1       0.963   6.298  -5.286  1.00  0.00    -0.504 OA
ATOM     21  H   UNL     1       1.068   5.533  -4.630  1.00  0.00     0.293 HD
ENDBRANCH  17  20
ENDBRANCH   1  12
BRANCH   6  22
ATOM     22  O   UNL     1      -2.364  13.504 -10.504  1.00  0.00    -0.507 OA
ATOM     23  H   UNL     1      -2.217  13.858  -9.571  1.00  0.00     0.293 HD
ENDBRANCH   6  22
BRANCH   8  24
ATOM     24  O   UNL     1      -4.554  10.535 -13.577  1.00  0.00    -0.508 OA
ATOM     25  H   UNL     1      -5.145  11.271 -13.946  1.00  0.00     0.293 HD
ENDBRANCH   8  24
TORSDOF 5
ENDMDL
MODEL 3
REMARK VINA RESULT:    -3.837      5.566      8.641
REMARK INTER + INTRA:          -4.826
REMARK INTER:                  -4.531
REMARK INTRA:                  -0.295
REMARK UNBOUND:                -0.316
REMARK SMILES O=c1cc(-c2ccc(O)c(O)c2)oc2cc(O)cc(O)c12
REMARK SMILES IDX 4 1 3 2 2 3 1 4 21 5 19 6 18 7 16 8 15 9 14 10 13 11 5 12
REMARK SMILES IDX 6 13 7 14 8 15 12 16 10 17 9 18 11 20 20 22 17 24
REMARK H PARENT 9 19 11 21 20 23 17 25
REMARK Flexibility Score: inf
ROOT
ATOM      1  C   UNL     1       0.784  13.182  -4.920  1.00  0.00     0.138 A 
ATOM      2  C   UNL     1       1.903  12.692  -4.233  1.00  0.00     0.100 A 
ATOM      3  C   UNL     1       1.831  12.487  -2.855  1.00  0.00     0.197 A 
ATOM      4  O   UNL     1       2.830  11.987  -2.277  1.00  0.00    -0.289 OA
ATOM      5  C   UNL     1       0.642  12.805  -2.157  1.00  0.00     0.107 A 
ATOM      6  C   UNL     1       0.468  12.675  -0.747  1.00  0.00     0.134 A 
ATOM      7  C   UNL     1      -0.792  12.911  -0.183  1.00  0.00     0.093 A 
ATOM      8  C   UNL     1      -1.868  13.328  -0.970  1.00  0.00     0.123 A 
ATOM      9  C   UNL     1      -1.694  13.509  -2.341  1.00  0.00     0.094 A 
ATOM     10  C   UNL     1      -0.458  13.250  -2.938  1.00  0.00     0.146 A 
ATOM     11  O   UNL     1      -0.338  13.422  -4.251  1.00  0.00    -0.456 OA
ENDROOT
BRANCH   1  12
ATOM     12  C   UNL     1       0.806  13.420  -6.386  1.00  0.00     0.021 A 
ATOM     13  C   UNL     1       1.894  14.052  -7.017  1.00  0.00     0.016 A 
ATOM     14  C   UNL     1       1.883  14.273  -8.397  1.00  0.00     0.051 A 
ATOM     15  C   UNL     1       0.785  13.874  -9.169  1.00  0.00     0.157 A 
ATOM     16  C   UNL     1      -0.300  13.035  -7.167  1.00  0.00     0.062 A 
ATOM     17  C   UNL     1      -0.312  13.254  -8.549  1.00  0.00     0.158 A 
BRANCH  15  18
ATOM     18  O   UNL     1       0.779  14.095 -10.545  1.00  0.00    -0.504 OA
ATOM     19  H   UNL     1       1.632  14.295 -11.055  1.00  0.00     0.293 HD
ENDBRANCH  15  18
BRANCH  17  20
ATOM     20  O   UNL     1      -1.423  12.849  -9.288  1.00  0.00    -0.504 OA
ATOM     21  H   UNL     1      -1.500  11.916  -9.675  1.00  0.00     0.293 HD
ENDBRANCH  17  20
ENDBRANCH   1  12
BRANCH   6  22
ATOM     22  O   UNL     1       1.497  12.346   0.140  1.00  0.00    -0.507 OA
ATOM     23  H   UNL     1       1.362  12.036   1.090  1.00  0.00     0.293 HD
ENDBRANCH   6  22
BRANCH   8  24
ATOM     24  O   UNL     1      -3.114  13.575  -0.398  1.00  0.00    -0.508 OA
ATOM     25  H   UNL     1      -3.379  13.166   0.491  1.00  0.00     0.293 HD
ENDBRANCH   8  24
TORSDOF 5
ENDMDL
MODEL 4
REMARK VINA RESULT:    -3.812      4.169      6.661
REMARK INTER + INTRA:          -4.796
REMARK INTER:                  -4.515
REMARK INTRA:                  -0.281
REMARK UNBOUND:                -0.316
REMARK SMILES O=c1cc(-c2ccc(O)c(O)c2)oc2cc(O)cc(O)c12
REMARK SMILES IDX 4 1 3 2 2 3 1 4 21 5 19 6 18 7 16 8 15 9 14 10 13 11 5 12
REMARK SMILES IDX 6 13 7 14 8 15 12 16 10 17 9 18 11 20 20 22 17 24
REMARK H PARENT 9 19 11 21 20 23 17 25
REMARK Flexibility Score: inf
ROOT
ATOM      1  C   UNL     1      -0.490  13.037  -8.716  1.00  0.00     0.138 A 
ATOM      2  C   UNL     1       0.760  13.530  -9.113  1.00  0.00     0.100 A 
ATOM      3  C   UNL     1       1.669  13.964  -8.146  1.00  0.00     0.197 A 
ATOM      4  O   UNL     1       2.806  14.341  -8.529  1.00  0.00    -0.289 OA
ATOM      5  C   UNL     1       1.309  13.933  -6.778  1.00  0.00     0.107 A 
ATOM      6  C   UNL     1       2.138  14.388  -5.710  1.00  0.00     0.134 A 
ATOM      7  C   UNL     1       1.722  14.201  -4.386  1.00  0.00     0.093 A 
ATOM      8  C   UNL     1       0.481  13.630  -4.094  1.00  0.00     0.123 A 
ATOM      9  C   UNL     1      -0.359  13.232  -5.132  1.00  0.00     0.094 A 
ATOM     10  C   UNL     1       0.042  13.374  -6.463  1.00  0.00     0.146 A 
ATOM     11  O   UNL     1      -0.783  12.968  -7.422  1.00  0.00    -0.456 OA
ENDROOT
BRANCH   1  12
ATOM     12  C   UNL     1      -1.495  12.563  -9.702  1.00  0.00     0.021 A 
ATOM     13  C   UNL     1      -1.995  13.406 -10.712  1.00  0.00     0.016 A 
ATOM     14  C   UNL     1      -2.948  12.937 -11.621  1.00  0.00     0.051 A 
ATOM     15  C   UNL     1      -3.423  11.622 -11.532  1.00  0.00     0.157 A 
ATOM     16  C   UNL     1      -1.988  11.248  -9.612  1.00  0.00     0.062 A 
ATOM     17  C   UNL     1      -2.942  10.775 -10.520  1.00  0.00     0.158 A 
BRANCH  15  18
ATOM     18  O   UNL     1      -4.372  11.157 -12.441  1.00  0.00    -0.504 OA
ATOM     19  H   UNL     1      -5.343  11.029 -12.176  1.00  0.00     0.293 HD
ENDBRANCH  15  18
BRANCH  17  20
ATOM     20  O   UNL     1      -3.397   9.463 -10.402  1.00  0.00    -0.504 OA
ATOM     21  H   UNL     1      -4.242   9.143 -10.860  1.00  0.00     0.293 HD
ENDBRANCH  17  20
ENDBRANCH   1  12
BRANCH   6  22
ATOM     22  O   UNL     1       3.357  15.048  -5.893  1.00  0.00    -0.507 OA
ATOM     23  H   UNL     1       3.877  15.511  -5.164  1.00  0.00     0.293 HD
ENDBRANCH   6  22
BRANCH   8  24
ATOM     24  O   UNL     1       0.068  13.462  -2.775  1.00  0.00    -0.508 OA
ATOM     25  H   UNL     1      -0.877  13.686  -2.482  1.00  0.00     0.293 HD
ENDBRANCH   8  24
TORSDOF 5
ENDMDL
MODEL 5
REMARK VINA RESULT:    -3.787      2.823      3.555
REMARK INTER + INTRA:          -4.768
REMARK INTER:                  -4.505
REMARK INTRA:                  -0.263
REMARK UNBOUND:                -0.316
REMARK SMILES O=c1cc(-c2ccc(O)c(O)c2)oc2cc(O)cc(O)c12
REMARK SMILES IDX 4 1 3 2 2 3 1 4 21 5 19 6 18 7 16 8 15 9 14 10 13 11 5 12
REMARK SMILES IDX 6 13 7 14 8 15 12 16 10 17 9 18 11 20 20 22 17 24
REMARK H PARENT 9 19 11 21 20 23 17 25
REMARK Flexibility Score: inf
ROOT
ATOM      1  C   UNL     1      -3.303   9.654  -9.281  1.00  0.00     0.138 A 
ATOM      2  C   UNL     1      -3.557  10.058 -10.599  1.00  0.00     0.100 A 
ATOM      3  C   UNL     1      -2.917  11.187 -11.111  1.00  0.00     0.197 A 
ATOM      4  O   UNL     1      -3.117  11.487 -12.316  1.00  0.00    -0.289 OA
ATOM      5  C   UNL     1      -2.041  11.933 -10.287  1.00  0.00     0.107 A 
ATOM      6  C   UNL     1      -1.365  13.124 -10.689  1.00  0.00     0.134 A 
ATOM      7  C   UNL     1      -0.433  13.712  -9.825  1.00  0.00     0.093 A 
ATOM      8  C   UNL     1      -0.197  13.187  -8.552  1.00  0.00     0.123 A 
ATOM      9  C   UNL     1      -0.892  12.055  -8.131  1.00  0.00     0.094 A 
ATOM     10  C   UNL     1      -1.803  11.425  -8.982  1.00  0.00     0.146 A 
ATOM     11  O   UNL     1      -2.435  10.340  -8.546  1.00  0.00    -0.456 OA
ENDROOT
BRANCH   1  12
ATOM     12  C   UNL     1      -3.957   8.461  -8.686  1.00  0.00     0.021 A 
ATOM     13  C   UNL     1      -3.269   7.243  -8.524  1.00  0.00     0.016 A 
ATOM     14  C   UNL     1      -3.913   6.133  -7.971  1.00  0.00     0.051 A 
ATOM     15  C   UNL     1      -5.255   6.217  -7.577  1.00  0.00     0.157 A 
ATOM     16  C   UNL     1      -5.308   8.532  -8.300  1.00  0.00     0.062 A 
ATOM     17  C   UNL     1      -5.955   7.422  -7.745  1.00  0.00     0.158 A 
BRANCH  15  18
ATOM     18  O   UNL     1      -5.893   5.108  -7.023  1.00  0.00    -0.504 OA
ATOM     19  H   UNL     1      -6.101   4.284  -7.576  1.00  0.00     0.293 HD
ENDBRANCH  15  18
BRANCH  17  20
ATOM     20  O   UNL     1      -7.292   7.538  -7.366  1.00  0.00    -0.504 OA
ATOM     21  H   UNL     1      -8.044   7.153  -7.925  1.00  0.00     0.293 HD
ENDBRANCH  17  20
ENDBRANCH   1  12
BRANCH   6  22
ATOM     22  O   UNL     1      -1.589  13.778 -11.904  1.00  0.00    -0.507 OA
ATOM     23  H   UNL     1      -2.238  13.470 -12.613  1.00  0.00     0.293 HD
ENDBRANCH   6  22
BRANCH   8  24
ATOM     24  O   UNL     1       0.721  13.787  -7.694  1.00  0.00    -0.508 OA
ATOM     25  H   UNL     1       1.445  13.249  -7.232  1.00  0.00     0.293 HD
ENDBRANCH   8  24
TORSDOF 5
ENDMDL
MODEL 6
REMARK VINA RESULT:    -3.758      3.492      6.137
REMARK INTER + INTRA:          -4.734
REMARK INTER:                  -4.458
REMARK INTRA:                  -0.276
REMARK UNBOUND:                -0.316
REMARK SMILES O=c1cc(-c2ccc(O)c(O)c2)oc2cc(O)cc(O)c12
REMARK SMILES IDX 4 1 3 2 2 3 1 4 21 5 19 6 18 7 16 8 15 9 14 10 13 11 5 12
REMARK SMILES IDX 6 13 7 14 8 15 12 16 10 17 9 18 11 20 20 22 17 24
REMARK H PARENT 9 19 11 21 20 23 17 25
REMARK Flexibility Score: inf
ROOT
ATOM      1  C   UNL     1      -0.720  12.507  -8.304  1.00  0.00     0.138 A 
ATOM      2  C   UNL     1      -0.997  11.137  -8.203  1.00  0.00     0.100 A 
ATOM      3  C   UNL     1      -1.833  10.531  -9.141  1.00  0.00     0.197 A 
ATOM      4  O   UNL     1      -2.012   9.288  -9.060  1.00  0.00    -0.289 OA
ATOM      5  C   UNL     1      -2.420  11.309 -10.167  1.00  0.00     0.107 A 
ATOM      6  C   UNL     1      -3.320  10.806 -11.153  1.00  0.00     0.134 A 
ATOM      7  C   UNL     1      -3.747  11.645 -12.190  1.00  0.00     0.093 A 
ATOM      8  C   UNL     1      -3.353  12.985 -12.242  1.00  0.00     0.123 A 
ATOM      9  C   UNL     1      -2.517  13.499 -11.252  1.00  0.00     0.094 A 
ATOM     10  C   UNL     1      -2.047  12.678 -10.224  1.00  0.00     0.146 A 
ATOM     11  O   UNL     1      -1.240  13.205  -9.309  1.00  0.00    -0.456 OA
ENDROOT
BRANCH   1  12
ATOM     12  C   UNL     1       0.162  13.203  -7.333  1.00  0.00     0.021 A 
ATOM     13  C   UNL     1      -0.184  13.322  -5.973  1.00  0.00     0.016 A 
ATOM     14  C   UNL     1       0.660  13.991  -5.083  1.00  0.00     0.051 A 
ATOM     15  C   UNL     1       1.858  14.560  -5.535  1.00  0.00     0.157 A 
ATOM     16  C   UNL     1       1.360  13.789  -7.781  1.00  0.00     0.062 A 
ATOM     17  C   UNL     1       2.207  14.460  -6.892  1.00  0.00     0.158 A 
BRANCH  15  18
ATOM     18  O   UNL     1       2.698  15.226  -4.644  1.00  0.00    -0.504 OA
ATOM     19  H   UNL     1       2.758  14.956  -3.669  1.00  0.00     0.293 HD
ENDBRANCH  15  18
BRANCH  17  20
ATOM     20  O   UNL     1       3.390  15.018  -7.374  1.00  0.00    -0.504 OA
ATOM     21  H   UNL     1       4.301  14.694  -7.070  1.00  0.00     0.293 HD
ENDBRANCH  17  20
ENDBRANCH   1  12
BRANCH   6  22
ATOM     22  O   UNL     1      -3.842   9.508 -11.147  1.00  0.00    -0.507 OA
ATOM     23  H   UNL     1      -4.139   9.003 -11.967  1.00  0.00     0.293 HD
ENDBRANCH   6  22
BRANCH   8  24
ATOM     24  O   UNL     1      -3.794  13.817 -13.267  1.00  0.00    -0.508 OA
ATOM     25  H   UNL     1      -4.722  14.224 -13.257  1.00  0.00     0.293 HD
ENDBRANCH   8  24
TORSDOF 5
ENDMDL
MODEL 7
REMARK VINA RESULT:    -3.730      5.064      6.150
REMARK INTER + INTRA:          -4.701
REMARK INTER:                  -4.401
REMARK INTRA:                  -0.300
REMARK UNBOUND:                -0.316
REMARK SMILES O=c1cc(-c2ccc(O)c(O)c2)oc2cc(O)cc(O)c12
REMARK SMILES IDX 4 1 3 2 2 3 1 4 21 5 19 6 18 7 16 8 15 9 14 10 13 11 5 12
REMARK SMILES IDX 6 13 7 14 8 15 12 16 10 17 9 18 11 20 20 22 17 24
REMARK H PARENT 9 19 11 21 20 23 17 25
REMARK Flexibility Score: inf
ROOT
ATOM      1  C   UNL     1       0.669  13.544  -7.718  1.00  0.00     0.138 A 
ATOM      2  C   UNL     1       1.671  14.155  -8.485  1.00  0.00     0.100 A 
ATOM      3  C   UNL     1       1.464  14.366  -9.848  1.00  0.00     0.197 A 
ATOM      4  O   UNL     1       2.355  14.973 -10.497  1.00  0.00    -0.289 OA
ATOM      5  C   UNL     1       0.260  13.933 -10.453  1.00  0.00     0.107 A 
ATOM      6  C   UNL     1      -0.043  14.059 -11.841  1.00  0.00     0.134 A 
ATOM      7  C   UNL     1      -1.314  13.700 -12.306  1.00  0.00     0.093 A 
ATOM      8  C   UNL     1      -2.273  13.165 -11.441  1.00  0.00     0.123 A 
ATOM      9  C   UNL     1      -1.968  12.988 -10.093  1.00  0.00     0.094 A 
ATOM     10  C   UNL     1      -0.720  13.369  -9.593  1.00  0.00     0.146 A 
ATOM     11  O   UNL     1      -0.474  13.196  -8.299  1.00  0.00    -0.456 OA
ENDROOT
BRANCH   1  12
ATOM     12  C   UNL     1       0.837  13.295  -6.264  1.00  0.00     0.021 A 
ATOM     13  C   UNL     1       2.063  12.864  -5.724  1.00  0.00     0.016 A 
ATOM     14  C   UNL     1       2.190  12.627  -4.353  1.00  0.00     0.051 A 
ATOM     15  C   UNL     1       1.095  12.808  -3.498  1.00  0.00     0.157 A 
ATOM     16  C   UNL     1      -0.262  13.461  -5.401  1.00  0.00     0.062 A 
ATOM     17  C   UNL     1      -0.137  13.225  -4.027  1.00  0.00     0.158 A 
BRANCH  15  18
ATOM     18  O   UNL     1       1.226  12.571  -2.131  1.00  0.00    -0.504 OA
ATOM     19  H   UNL     1       1.164  13.323  -1.454  1.00  0.00     0.293 HD
ENDBRANCH  15  18
BRANCH  17  20
ATOM     20  O   UNL     1      -1.248  13.411  -3.205  1.00  0.00    -0.504 OA
ATOM     21  H   UNL     1      -1.276  13.068  -2.253  1.00  0.00     0.293 HD
ENDBRANCH  17  20
ENDBRANCH   1  12
BRANCH   6  22
ATOM     22  O   UNL     1       0.870  14.503 -12.803  1.00  0.00    -0.507 OA
ATOM     23  H   UNL     1       1.580  15.200 -12.645  1.00  0.00     0.293 HD
ENDBRANCH   6  22
BRANCH   8  24
ATOM     24  O   UNL     1      -3.530  12.796 -11.914  1.00  0.00    -0.508 OA
ATOM     25  H   UNL     1      -3.715  12.699 -12.906  1.00  0.00     0.293 HD
ENDBRANCH   8  24
TORSDOF 5
ENDMDL
MODEL 8
REMARK VINA RESULT:    -3.704      1.917      6.977
REMARK INTER + INTRA:          -4.669
REMARK INTER:                  -4.382
REMARK INTRA:                  -0.287
REMARK UNBOUND:                -0.316
REMARK SMILES O=c1cc(-c2ccc(O)c(O)c2)oc2cc(O)cc(O)c12
REMARK SMILES IDX 4 1 3 2 2 3 1 4 21 5 19 6 18 7 16 8 15 9 14 10 13 11 5 12
REMARK SMILES IDX 6 13 7 14 8 15 12 16 10 17 9 18 11 20 20 22 17 24
REMARK H PARENT 9 19 11 21 20 23 17 25
REMARK Flexibility Score: inf
ROOT
ATOM      1  C   UNL     1      -2.042   7.900  -8.724  1.00  0.00     0.138 A 
ATOM      2  C   UNL     1      -3.193   7.110  -8.845  1.00  0.00     0.100 A 
ATOM      3  C   UNL     1      -3.150   5.767  -8.469  1.00  0.00     0.197 A 
ATOM      4  O   UNL     1      -4.215   5.100  -8.530  1.00  0.00    -0.289 OA
ATOM      5  C   UNL     1      -1.939   5.206  -8.000  1.00  0.00     0.107 A 
ATOM      6  C   UNL     1      -1.768   3.839  -7.628  1.00  0.00     0.134 A 
ATOM      7  C   UNL     1      -0.553   3.423  -7.067  1.00  0.00     0.093 A 
ATOM      8  C   UNL     1       0.515   4.312  -6.922  1.00  0.00     0.123 A 
ATOM      9  C   UNL     1       0.375   5.636  -7.332  1.00  0.00     0.094 A 
ATOM     10  C   UNL     1      -0.836   6.089  -7.864  1.00  0.00     0.146 A 
ATOM     11  O   UNL     1      -0.931   7.363  -8.230  1.00  0.00    -0.456 OA
ENDROOT
BRANCH   1  12
ATOM     12  C   UNL     1      -2.030   9.334  -9.110  1.00  0.00     0.021 A 
ATOM     13  C   UNL     1      -2.459   9.762 -10.381  1.00  0.00     0.016 A 
ATOM     14  C   UNL     1      -2.428  11.116 -10.722  1.00  0.00     0.051 A 
ATOM     15  C   UNL     1      -1.962  12.067  -9.804  1.00  0.00     0.157 A 
ATOM     16  C   UNL     1      -1.552  10.294  -8.199  1.00  0.00     0.062 A 
ATOM     17  C   UNL     1      -1.520  11.651  -8.537  1.00  0.00     0.158 A 
BRANCH  15  18
ATOM     18  O   UNL     1      -1.935  13.418 -10.146  1.00  0.00    -0.504 OA
ATOM     19  H   UNL     1      -1.435  13.748 -10.964  1.00  0.00     0.293 HD
ENDBRANCH  15  18
BRANCH  17  20
ATOM     20  O   UNL     1      -1.048  12.571  -7.602  1.00  0.00    -0.504 OA
ATOM     21  H   UNL     1      -0.291  12.350  -6.966  1.00  0.00     0.293 HD
ENDBRANCH  17  20
ENDBRANCH   1  12
BRANCH   6  22
ATOM     22  O   UNL     1      -2.741   2.852  -7.809  1.00  0.00    -0.507 OA
ATOM     23  H   UNL     1      -3.633   2.997  -8.256  1.00  0.00     0.293 HD
ENDBRANCH   6  22
BRANCH   8  24
ATOM     24  O   UNL     1       1.724   3.887  -6.378  1.00  0.00    -0.508 OA
ATOM     25  H   UNL     1       1.786   3.043  -5.819  1.00  0.00     0.293 HD
ENDBRANCH   8  24
TORSDOF 5
ENDMDL
MODEL 9
REMARK VINA RESULT:    -3.667      7.845     10.254
REMARK INTER + INTRA:          -4.626
REMARK INTER:                  -4.356
REMARK INTRA:                  -0.270
REMARK UNBOUND:                -0.316
REMARK SMILES O=c1cc(-c2ccc(O)c(O)c2)oc2cc(O)cc(O)c12
REMARK SMILES IDX 4 1 3 2 2 3 1 4 21 5 19 6 18 7 16 8 15 9 14 10 13 11 5 12
REMARK SMILES IDX 6 13 7 14 8 15 12 16 10 17 9 18 11 20 20 22 17 24
REMARK H PARENT 9 19 11 21 20 23 17 25
REMARK Flexibility Score: inf
ROOT
ATOM      1  C   UNL     1      -1.362  13.665  -1.839  1.00  0.00     0.138 A 
ATOM      2  C   UNL     1      -2.538  14.339  -1.480  1.00  0.00     0.100 A 
ATOM      3  C   UNL     1      -3.239  13.944  -0.340  1.00  0.00     0.197 A 
ATOM      4  O   UNL     1      -4.255  14.608  -0.008  1.00  0.00    -0.289 OA
ATOM      5  C   UNL     1      -2.777  12.846   0.425  1.00  0.00     0.107 A 
ATOM      6  C   UNL     1      -3.433  12.330   1.582  1.00  0.00     0.134 A 
ATOM      7  C   UNL     1      -2.821  11.313   2.326  1.00  0.00     0.093 A 
ATOM      8  C   UNL     1      -1.606  10.755   1.921  1.00  0.00     0.123 A 
ATOM      9  C   UNL     1      -0.984  11.217   0.762  1.00  0.00     0.094 A 
ATOM     10  C   UNL     1      -1.553  12.253   0.017  1.00  0.00     0.146 A 
ATOM     11  O   UNL     1      -0.920  12.673  -1.073  1.00  0.00    -0.456 OA
ENDROOT
BRANCH   1  12
ATOM     12  C   UNL     1      -0.577  14.043  -3.041  1.00  0.00     0.021 A 
ATOM     13  C   UNL     1       0.154  15.245  -3.099  1.00  0.00     0.016 A 
ATOM     14  C   UNL     1       0.876  15.581  -4.248  1.00  0.00     0.051 A 
ATOM     15  C   UNL     1       0.874  14.729  -5.360  1.00  0.00     0.157 A 
ATOM     16  C   UNL     1      -0.585  13.200  -4.168  1.00  0.00     0.062 A 
ATOM     17  C   UNL     1       0.137  13.534  -5.319  1.00  0.00     0.158 A 
BRANCH  15  18
ATOM     18  O   UNL     1       1.596  15.067  -6.503  1.00  0.00    -0.504 OA
ATOM     19  H   UNL     1       1.209  15.676  -7.215  1.00  0.00     0.293 HD
ENDBRANCH  15  18
BRANCH  17  20
ATOM     20  O   UNL     1       0.111  12.666  -6.409  1.00  0.00    -0.504 OA
ATOM     21  H   UNL     1       0.426  12.949  -7.330  1.00  0.00     0.293 HD
ENDBRANCH  17  20
ENDBRANCH   1  12
BRANCH   6  22
ATOM     22  O   UNL     1      -4.688  12.758   2.026  1.00  0.00    -0.507 OA
ATOM     23  H   UNL     1      -5.463  12.148   2.237  1.00  0.00     0.293 HD
ENDBRANCH   6  22
BRANCH   8  24
ATOM     24  O   UNL     1      -1.011   9.734   2.658  1.00  0.00    -0.508 OA
ATOM     25  H   UNL     1      -1.031   9.732   3.672  1.00  0.00     0.293 HD
ENDBRANCH   8  24
TORSDOF 5
ENDMDL
