MODEL 1
REMARK VINA RESULT:    -4.713      0.000      0.000
REMARK INTER + INTRA:          -7.903
REMARK INTER:                  -7.468
REMARK INTRA:                  -0.435
REMARK UNBOUND:                -0.435
REMARK SMILES CCCCCCCCCCCC(=O)[O-]
REMARK SMILES IDX 7 1 8 2 9 3 10 4 11 5 12 6 13 7 14 8 6 9 5 10 4 11 3 12 2 13
REMARK SMILES IDX 1 14
REMARK H PARENT
REMARK Flexibility Score: inf
ROOT
ATOM      1  C   UNL     1       0.363   5.862  17.196  1.00  0.00     0.000 C 
ENDROOT
BRANCH   1   2
ATOM      2  C   UNL     1      -0.792   5.335  16.327  1.00  0.00     0.000 C 
BRANCH   2   3
ATOM      3  C   UNL     1      -1.173   3.885  16.668  1.00  0.00     0.000 C 
BRANCH   3   4
ATOM      4  C   UNL     1      -2.455   3.426  15.957  1.00  0.00     0.006 C 
BRANCH   4   5
ATOM      5  C   UNL     1      -3.633   4.338  16.313  1.00  0.00     0.053 C 
BRANCH   5   6
ATOM      6  C   UNL     1      -4.929   3.696  15.929  1.00  0.00     0.041 C 
ATOM      7  O   UNL     1      -5.540   2.963  16.749  1.00  0.00    -0.550 OA
ATOM      8  O   UNL     1      -5.435   3.867  14.647  1.00  0.00    -0.550 OA
ENDBRANCH   5   6
ENDBRANCH   4   5
ENDBRANCH   3   4
ENDBRANCH   2   3
ENDBRANCH   1   2
BRANCH   1   9
ATOM      9  C   UNL     1      -0.036   6.024  18.672  1.00  0.00     0.000 C 
BRANCH   9  10
ATOM     10  C   UNL     1       0.334   7.407  19.238  1.00  0.00    -0.000 C 
BRANCH  10  11
ATOM     11  C   UNL     1       0.098   7.506  20.753  1.00  0.00    -0.000 C 
BRANCH  11  12
ATOM     12  C   UNL     1       1.312   7.040  21.572  1.00  0.00    -0.000 C 
BRANCH  12  13
ATOM     13  C   UNL     1       0.897   6.656  22.996  1.00  0.00    -0.003 C 
ATOM     14  C   UNL     1      -0.617   6.739  23.171  1.00  0.00     0.004 C 
ENDBRANCH  12  13
ENDBRANCH  11  12
ENDBRANCH  10  11
ENDBRANCH   9  10
ENDBRANCH   1   9
TORSDOF 10
ENDMDL
MODEL 2
REMARK VINA RESULT:    -4.663      5.111      7.806
REMARK INTER + INTRA:          -7.824
REMARK INTER:                  -7.442
REMARK INTRA:                  -0.382
REMARK UNBOUND:                -0.435
REMARK SMILES CCCCCCCCCCCC(=O)[O-]
REMARK SMILES IDX 7 1 8 2 9 3 10 4 11 5 12 6 13 7 14 8 6 9 5 10 4 11 3 12 2 13
REMARK SMILES IDX 1 14
REMARK H PARENT
REMARK Flexibility Score: inf
ROOT
ATOM      1  C   UNL     1       1.515   8.923  16.886  1.00  0.00     0.000 C 
ENDROOT
BRANCH   1   2
ATOM      2  C   UNL     1       1.446   8.911  18.423  1.00  0.00     0.000 C 
BRANCH   2   3
ATOM      3  C   UNL     1       0.655   7.711  18.969  1.00  0.00     0.000 C 
BRANCH   3   4
ATOM      4  C   UNL     1       0.893   7.476  20.469  1.00  0.00     0.006 C 
BRANCH   4   5
ATOM      5  C   UNL     1      -0.380   6.969  21.152  1.00  0.00     0.053 C 
BRANCH   5   6
ATOM      6  C   UNL     1      -0.147   6.771  22.616  1.00  0.00     0.041 C 
ATOM      7  O   UNL     1       1.018   6.575  23.051  1.00  0.00    -0.550 OA
ATOM      8  O   UNL     1      -1.223   6.750  23.495  1.00  0.00    -0.550 OA
ENDBRANCH   5   6
ENDBRANCH   4   5
ENDBRANCH   3   4
ENDBRANCH   2   3
ENDBRANCH   1   2
BRANCH   1   9
ATOM      9  C   UNL     1       1.852  10.313  16.322  1.00  0.00     0.000 C 
BRANCH   9  10
ATOM     10  C   UNL     1       0.773  10.841  15.360  1.00  0.00    -0.000 C 
BRANCH  10  11
ATOM     11  C   UNL     1       0.014   9.711  14.648  1.00  0.00    -0.000 C 
BRANCH  11  12
ATOM     12  C   UNL     1      -1.318  10.182  14.044  1.00  0.00    -0.000 C 
BRANCH  12  13
ATOM     13  C   UNL     1      -1.499   9.636  12.624  1.00  0.00    -0.003 C 
ATOM     14  C   UNL     1      -0.216   9.778  11.810  1.00  0.00     0.004 C 
ENDBRANCH  12  13
ENDBRANCH  11  12
ENDBRANCH  10  11
ENDBRANCH   9  10
ENDBRANCH   1   9
TORSDOF 10
ENDMDL
MODEL 3
REMARK VINA RESULT:    -4.566      4.329      5.122
REMARK INTER + INTRA:          -7.671
REMARK INTER:                  -7.217
REMARK INTRA:                  -0.454
REMARK UNBOUND:                -0.435
REMARK SMILES CCCCCCCCCCCC(=O)[O-]
REMARK SMILES IDX 7 1 8 2 9 3 10 4 11 5 12 6 13 7 14 8 6 9 5 10 4 11 3 12 2 13
REMARK SMILES IDX 1 14
REMARK H PARENT
REMARK Flexibility Score: inf
ROOT
ATOM      1  C   UNL     1       1.882   8.523  17.215  1.00  0.00     0.000 C 
ENDROOT
BRANCH   1   2
ATOM      2  C   UNL     1       1.168   9.029  15.949  1.00  0.00     0.000 C 
BRANCH   2   3
ATOM      3  C   UNL     1       0.843  10.530  16.014  1.00  0.00     0.000 C 
BRANCH   3   4
ATOM      4  C   UNL     1       0.191  11.052  14.724  1.00  0.00     0.006 C 
BRANCH   4   5
ATOM      5  C   UNL     1      -0.222   9.893  13.812  1.00  0.00     0.053 C 
BRANCH   5   6
ATOM      6  C   UNL     1      -1.712   9.792  13.735  1.00  0.00     0.041 C 
ATOM      7  O   UNL     1      -2.251   8.852  13.094  1.00  0.00    -0.550 OA
ATOM      8  O   UNL     1      -2.507  10.764  14.328  1.00  0.00    -0.550 OA
ENDBRANCH   5   6
ENDBRANCH   4   5
ENDBRANCH   3   4
ENDBRANCH   2   3
ENDBRANCH   1   2
BRANCH   1   9
ATOM      9  C   UNL     1       1.045   8.735  18.487  1.00  0.00     0.000 C 
BRANCH   9  10
ATOM     10  C   UNL     1       0.560   7.412  19.105  1.00  0.00    -0.000 C 
BRANCH  10  11
ATOM     11  C   UNL     1       0.246   7.541  20.603  1.00  0.00    -0.000 C 
BRANCH  11  12
ATOM     12  C   UNL     1       1.446   7.179  21.493  1.00  0.00    -0.000 C 
BRANCH  12  13
ATOM     13  C   UNL     1       0.980   6.606  22.835  1.00  0.00    -0.003 C 
ATOM     14  C   UNL     1      -0.535   6.716  22.986  1.00  0.00     0.004 C 
ENDBRANCH  12  13
ENDBRANCH  11  12
ENDBRANCH  10  11
ENDBRANCH   9  10
ENDBRANCH   1   9
TORSDOF 10
ENDMDL
MODEL 4
REMARK VINA RESULT:    -4.453      4.684      7.918
REMARK INTER + INTRA:          -7.491
REMARK INTER:                  -6.300
REMARK INTRA:                  -1.191
REMARK UNBOUND:                -0.435
REMARK SMILES CCCCCCCCCCCC(=O)[O-]
REMARK SMILES IDX 7 1 8 2 9 3 10 4 11 5 12 6 13 7 14 8 6 9 5 10 4 11 3 12 2 13
REMARK SMILES IDX 1 14
REMARK H PARENT
REMARK Flexibility Score: inf
ROOT
ATOM      1  C   UNL     1      -6.445   6.952  17.056  1.00  0.00     0.000 C 
ENDROOT
BRANCH   1   2
ATOM      2  C   UNL     1      -5.214   6.030  17.002  1.00  0.00     0.000 C 
BRANCH   2   3
ATOM      3  C   UNL     1      -5.591   4.552  16.807  1.00  0.00     0.000 C 
BRANCH   3   4
ATOM      4  C   UNL     1      -4.400   3.691  16.360  1.00  0.00     0.006 C 
BRANCH   4   5
ATOM      5  C   UNL     1      -3.273   4.565  15.802  1.00  0.00     0.053 C 
BRANCH   5   6
ATOM      6  C   UNL     1      -1.947   3.901  16.000  1.00  0.00     0.041 C 
ATOM      7  O   UNL     1      -0.904   4.410  15.513  1.00  0.00    -0.550 OA
ATOM      8  O   UNL     1      -1.869   2.692  16.680  1.00  0.00    -0.550 OA
ENDBRANCH   5   6
ENDBRANCH   4   5
ENDBRANCH   3   4
ENDBRANCH   2   3
ENDBRANCH   1   2
BRANCH   1   9
ATOM      9  C   UNL     1      -7.093   7.150  15.675  1.00  0.00     0.000 C 
BRANCH   9  10
ATOM     10  C   UNL     1      -8.481   6.493  15.572  1.00  0.00    -0.000 C 
BRANCH  10  11
ATOM     11  C   UNL     1      -8.752   5.903  14.180  1.00  0.00    -0.000 C 
BRANCH  11  12
ATOM     12  C   UNL     1      -7.853   4.698  13.862  1.00  0.00    -0.000 C 
BRANCH  12  13
ATOM     13  C   UNL     1      -6.996   4.966  12.620  1.00  0.00    -0.003 C 
ATOM     14  C   UNL     1      -5.536   4.597  12.867  1.00  0.00     0.004 C 
ENDBRANCH  12  13
ENDBRANCH  11  12
ENDBRANCH  10  11
ENDBRANCH   9  10
ENDBRANCH   1   9
TORSDOF 10
ENDMDL
MODEL 5
REMARK VINA RESULT:    -4.430      5.075      7.605
REMARK INTER + INTRA:          -7.456
REMARK INTER:                  -5.764
REMARK INTRA:                  -1.692
REMARK UNBOUND:                -0.435
REMARK SMILES CCCCCCCCCCCC(=O)[O-]
REMARK SMILES IDX 7 1 8 2 9 3 10 4 11 5 12 6 13 7 14 8 6 9 5 10 4 11 3 12 2 13
REMARK SMILES IDX 1 14
REMARK H PARENT
REMARK Flexibility Score: inf
ROOT
ATOM      1  C   UNL     1      -4.408   6.907  14.391  1.00  0.00     0.000 C 
ENDROOT
BRANCH   1   2
ATOM      2  C   UNL     1      -5.173   7.846  15.341  1.00  0.00     0.000 C 
BRANCH   2   3
ATOM      3  C   UNL     1      -5.687   7.124  16.598  1.00  0.00     0.000 C 
BRANCH   3   4
ATOM      4  C   UNL     1      -4.841   5.895  16.962  1.00  0.00     0.006 C 
BRANCH   4   5
ATOM      5  C   UNL     1      -5.668   4.610  16.851  1.00  0.00     0.053 C 
BRANCH   5   6
ATOM      6  C   UNL     1      -4.780   3.435  16.592  1.00  0.00     0.041 C 
ATOM      7  O   UNL     1      -5.027   2.324  17.130  1.00  0.00    -0.550 OA
ATOM      8  O   UNL     1      -3.650   3.579  15.797  1.00  0.00    -0.550 OA
ENDBRANCH   5   6
ENDBRANCH   4   5
ENDBRANCH   3   4
ENDBRANCH   2   3
ENDBRANCH   1   2
BRANCH   1   9
ATOM      9  C   UNL     1      -5.243   6.503  13.165  1.00  0.00     0.000 C 
BRANCH   9  10
ATOM     10  C   UNL     1      -5.491   4.986  13.089  1.00  0.00    -0.000 C 
BRANCH  10  11
ATOM     11  C   UNL     1      -6.925   4.602  13.483  1.00  0.00    -0.000 C 
BRANCH  11  12
ATOM     12  C   UNL     1      -7.896   5.791  13.415  1.00  0.00    -0.000 C 
BRANCH  12  13
ATOM     13  C   UNL     1      -8.744   5.879  14.689  1.00  0.00    -0.003 C 
ATOM     14  C   UNL     1      -9.003   7.332  15.079  1.00  0.00     0.004 C 
ENDBRANCH  12  13
ENDBRANCH  11  12
ENDBRANCH  10  11
ENDBRANCH   9  10
ENDBRANCH   1   9
TORSDOF 10
ENDMDL
MODEL 6
REMARK VINA RESULT:    -4.426      4.421      7.152
REMARK INTER + INTRA:          -7.449
REMARK INTER:                  -6.189
REMARK INTRA:                  -1.260
REMARK UNBOUND:                -0.435
REMARK SMILES CCCCCCCCCCCC(=O)[O-]
REMARK SMILES IDX 7 1 8 2 9 3 10 4 11 5 12 6 13 7 14 8 6 9 5 10 4 11 3 12 2 13
REMARK SMILES IDX 1 14
REMARK H PARENT
REMARK Flexibility Score: inf
ROOT
ATOM      1  C   UNL     1      -5.268   5.999  17.280  1.00  0.00     0.000 C 
ENDROOT
BRANCH   1   2
ATOM      2  C   UNL     1      -5.686   4.604  16.783  1.00  0.00     0.000 C 
BRANCH   2   3
ATOM      3  C   UNL     1      -4.542   3.863  16.072  1.00  0.00     0.000 C 
BRANCH   3   4
ATOM      4  C   UNL     1      -3.318   4.759  15.826  1.00  0.00     0.006 C 
BRANCH   4   5
ATOM      5  C   UNL     1      -2.093   3.919  15.453  1.00  0.00     0.053 C 
BRANCH   5   6
ATOM      6  C   UNL     1      -1.262   3.637  16.665  1.00  0.00     0.041 C 
ATOM      7  O   UNL     1      -1.264   2.488  17.181  1.00  0.00    -0.550 OA
ATOM      8  O   UNL     1      -0.525   4.655  17.256  1.00  0.00    -0.550 OA
ENDBRANCH   5   6
ENDBRANCH   4   5
ENDBRANCH   3   4
ENDBRANCH   2   3
ENDBRANCH   1   2
BRANCH   1   9
ATOM      9  C   UNL     1      -6.132   7.122  16.681  1.00  0.00     0.000 C 
BRANCH   9  10
ATOM     10  C   UNL     1      -5.434   7.851  15.519  1.00  0.00    -0.000 C 
BRANCH  10  11
ATOM     11  C   UNL     1      -5.974   7.424  14.145  1.00  0.00    -0.000 C 
BRANCH  11  12
ATOM     12  C   UNL     1      -4.901   6.759  13.268  1.00  0.00    -0.000 C 
BRANCH  12  13
ATOM     13  C   UNL     1      -5.543   5.878  12.191  1.00  0.00    -0.003 C 
ATOM     14  C   UNL     1      -5.769   4.458  12.702  1.00  0.00     0.004 C 
ENDBRANCH  12  13
ENDBRANCH  11  12
ENDBRANCH  10  11
ENDBRANCH   9  10
ENDBRANCH   1   9
TORSDOF 10
ENDMDL
MODEL 7
REMARK VINA RESULT:    -4.384      3.706      7.186
REMARK INTER + INTRA:          -7.382
REMARK INTER:                  -6.857
REMARK INTRA:                  -0.525
REMARK UNBOUND:                -0.435
REMARK SMILES CCCCCCCCCCCC(=O)[O-]
REMARK SMILES IDX 7 1 8 2 9 3 10 4 11 5 12 6 13 7 14 8 6 9 5 10 4 11 3 12 2 13
REMARK SMILES IDX 1 14
REMARK H PARENT
REMARK Flexibility Score: inf
ROOT
ATOM      1  C   UNL     1      -0.695   5.358  16.993  1.00  0.00     0.000 C 
ENDROOT
BRANCH   1   2
ATOM      2  C   UNL     1      -0.011   5.638  18.343  1.00  0.00     0.000 C 
BRANCH   2   3
ATOM      3  C   UNL     1       0.419   7.106  18.494  1.00  0.00     0.000 C 
BRANCH   3   4
ATOM      4  C   UNL     1       0.693   7.497  19.954  1.00  0.00     0.006 C 
BRANCH   4   5
ATOM      5  C   UNL     1      -0.396   6.947  20.880  1.00  0.00     0.053 C 
BRANCH   5   6
ATOM      6  C   UNL     1       0.134   6.774  22.268  1.00  0.00     0.041 C 
ATOM      7  O   UNL     1      -0.657   6.579  23.228  1.00  0.00    -0.550 OA
ATOM      8  O   UNL     1       1.498   6.879  22.511  1.00  0.00    -0.550 OA
ENDBRANCH   5   6
ENDBRANCH   4   5
ENDBRANCH   3   4
ENDBRANCH   2   3
ENDBRANCH   1   2
BRANCH   1   9
ATOM      9  C   UNL     1      -1.062   3.876  16.814  1.00  0.00     0.000 C 
BRANCH   9  10
ATOM     10  C   UNL     1      -2.410   3.681  16.098  1.00  0.00    -0.000 C 
BRANCH  10  11
ATOM     11  C   UNL     1      -3.114   5.012  15.790  1.00  0.00    -0.000 C 
BRANCH  11  12
ATOM     12  C   UNL     1      -4.446   5.164  16.540  1.00  0.00    -0.000 C 
BRANCH  12  13
ATOM     13  C   UNL     1      -5.508   4.219  15.968  1.00  0.00    -0.003 C 
ATOM     14  C   UNL     1      -5.860   4.590  14.530  1.00  0.00     0.004 C 
ENDBRANCH  12  13
ENDBRANCH  11  12
ENDBRANCH  10  11
ENDBRANCH   9  10
ENDBRANCH   1   9
TORSDOF 10
ENDMDL
MODEL 8
REMARK VINA RESULT:    -4.331      5.477      8.205
REMARK INTER + INTRA:          -7.298
REMARK INTER:                  -5.925
REMARK INTRA:                  -1.373
REMARK UNBOUND:                -0.435
REMARK SMILES CCCCCCCCCCCC(=O)[O-]
REMARK SMILES IDX 7 1 8 2 9 3 10 4 11 5 12 6 13 7 14 8 6 9 5 10 4 11 3 12 2 13
REMARK SMILES IDX 1 14
REMARK H PARENT
REMARK Flexibility Score: inf
ROOT
ATOM      1  C   UNL     1      -7.762   7.002  16.696  1.00  0.00     0.000 C 
ENDROOT
BRANCH   1   2
ATOM      2  C   UNL     1      -6.481   7.504  16.007  1.00  0.00     0.000 C 
BRANCH   2   3
ATOM      3  C   UNL     1      -5.248   6.659  16.367  1.00  0.00     0.000 C 
BRANCH   3   4
ATOM      4  C   UNL     1      -5.618   5.309  16.999  1.00  0.00     0.006 C 
BRANCH   4   5
ATOM      5  C   UNL     1      -5.373   4.160  16.016  1.00  0.00     0.053 C 
BRANCH   5   6
ATOM      6  C   UNL     1      -4.589   3.067  16.672  1.00  0.00     0.041 C 
ATOM      7  O   UNL     1      -3.337   3.025  16.550  1.00  0.00    -0.550 OA
ATOM      8  O   UNL     1      -5.247   2.065  17.375  1.00  0.00    -0.550 OA
ENDBRANCH   5   6
ENDBRANCH   4   5
ENDBRANCH   3   4
ENDBRANCH   2   3
ENDBRANCH   1   2
BRANCH   1   9
ATOM      9  C   UNL     1      -8.865   6.631  15.690  1.00  0.00     0.000 C 
BRANCH   9  10
ATOM     10  C   UNL     1      -8.347   6.558  14.243  1.00  0.00    -0.000 C 
BRANCH  10  11
ATOM     11  C   UNL     1      -8.238   5.114  13.728  1.00  0.00    -0.000 C 
BRANCH  11  12
ATOM     12  C   UNL     1      -6.997   4.892  12.849  1.00  0.00    -0.000 C 
BRANCH  12  13
ATOM     13  C   UNL     1      -6.155   6.169  12.757  1.00  0.00    -0.003 C 
ATOM     14  C   UNL     1      -5.433   6.258  11.416  1.00  0.00     0.004 C 
ENDBRANCH  12  13
ENDBRANCH  11  12
ENDBRANCH  10  11
ENDBRANCH   9  10
ENDBRANCH   1   9
TORSDOF 10
ENDMDL
MODEL 9
REMARK VINA RESULT:    -4.290      5.237      6.482
REMARK INTER + INTRA:          -7.233
REMARK INTER:                  -5.619
REMARK INTRA:                  -1.614
REMARK UNBOUND:                -0.435
REMARK SMILES CCCCCCCCCCCC(=O)[O-]
REMARK SMILES IDX 7 1 8 2 9 3 10 4 11 5 12 6 13 7 14 8 6 9 5 10 4 11 3 12 2 13
REMARK SMILES IDX 1 14
REMARK H PARENT
REMARK Flexibility Score: inf
ROOT
ATOM      1  C   UNL     1      -4.357   6.781  14.229  1.00  0.00     0.000 C 
ENDROOT
BRANCH   1   2
ATOM      2  C   UNL     1      -5.116   6.276  12.989  1.00  0.00     0.000 C 
BRANCH   2   3
ATOM      3  C   UNL     1      -5.617   4.831  13.151  1.00  0.00     0.000 C 
BRANCH   3   4
ATOM      4  C   UNL     1      -7.138   4.708  12.975  1.00  0.00     0.006 C 
BRANCH   4   5
ATOM      5  C   UNL     1      -7.870   5.071  14.271  1.00  0.00     0.053 C 
BRANCH   5   6
ATOM      6  C   UNL     1      -8.952   6.068  14.001  1.00  0.00     0.041 C 
ATOM      7  O   UNL     1      -9.635   6.534  14.950  1.00  0.00    -0.550 OA
ATOM      8  O   UNL     1      -9.242   6.443  12.695  1.00  0.00    -0.550 OA
ENDBRANCH   5   6
ENDBRANCH   4   5
ENDBRANCH   3   4
ENDBRANCH   2   3
ENDBRANCH   1   2
BRANCH   1   9
ATOM      9  C   UNL     1      -5.214   7.706  15.108  1.00  0.00     0.000 C 
BRANCH   9  10
ATOM     10  C   UNL     1      -5.608   7.055  16.446  1.00  0.00    -0.000 C 
BRANCH  10  11
ATOM     11  C   UNL     1      -4.736   5.837  16.789  1.00  0.00    -0.000 C 
BRANCH  11  12
ATOM     12  C   UNL     1      -5.564   4.564  17.024  1.00  0.00    -0.000 C 
BRANCH  12  13
ATOM     13  C   UNL     1      -4.826   3.326  16.502  1.00  0.00    -0.003 C 
ATOM     14  C   UNL     1      -3.384   3.660  16.132  1.00  0.00     0.004 C 
ENDBRANCH  12  13
ENDBRANCH  11  12
ENDBRANCH  10  11
ENDBRANCH   9  10
ENDBRANCH   1   9
TORSDOF 10
ENDMDL
