MODEL 1
REMARK VINA RESULT:    -5.912      0.000      0.000
REMARK INTER + INTRA:          -7.413
REMARK INTER:                  -7.121
REMARK INTRA:                  -0.291
REMARK UNBOUND:                -0.291
REMARK SMILES O=c1c(O)c(-c2ccc(O)c(O)c2)oc2cc(O)cc(O)c12
REMARK SMILES IDX 5 1 3 2 2 3 1 4 22 5 20 6 19 7 17 8 16 9 15 10 14 11 6 12
REMARK SMILES IDX 7 13 8 14 9 15 13 16 11 17 10 18 12 20 4 22 21 24 18 26
REMARK H PARENT 10 19 12 21 4 23 21 25 18 27
REMARK Flexibility Score: inf
ROOT
ATOM      1  C   UNL     1      -3.311  14.065 -26.977  1.00  0.00     0.180 A 
ATOM      2  C   UNL     1      -4.064  13.039 -26.381  1.00  0.00     0.208 A 
ATOM      3  C   UNL     1      -4.558  12.001 -27.187  1.00  0.00     0.238 A 
ATOM      4  O   UNL     1      -5.185  11.057 -26.639  1.00  0.00    -0.285 OA
ATOM      5  C   UNL     1      -4.307  12.010 -28.580  1.00  0.00     0.111 A 
ATOM      6  C   UNL     1      -4.794  11.031 -29.497  1.00  0.00     0.134 A 
ATOM      7  C   UNL     1      -4.375  11.068 -30.833  1.00  0.00     0.093 A 
ATOM      8  C   UNL     1      -3.540  12.087 -31.299  1.00  0.00     0.123 A 
ATOM      9  C   UNL     1      -3.109  13.080 -30.424  1.00  0.00     0.094 A 
ATOM     10  C   UNL     1      -3.480  13.050 -29.078  1.00  0.00     0.146 A 
ATOM     11  O   UNL     1      -3.037  14.011 -28.276  1.00  0.00    -0.452 OA
ENDROOT
BRANCH   1  12
ATOM     12  C   UNL     1      -2.778  15.206 -26.197  1.00  0.00     0.025 A 
ATOM     13  C   UNL     1      -3.399  16.463 -26.225  1.00  0.00     0.016 A 
ATOM     14  C   UNL     1      -2.864  17.530 -25.500  1.00  0.00     0.051 A 
ATOM     15  C   UNL     1      -1.696  17.369 -24.747  1.00  0.00     0.157 A 
ATOM     16  C   UNL     1      -1.592  15.046 -25.462  1.00  0.00     0.062 A 
ATOM     17  C   UNL     1      -1.048  16.111 -24.731  1.00  0.00     0.158 A 
BRANCH  15  18
ATOM     18  O   UNL     1      -1.215  18.474 -24.043  1.00  0.00    -0.504 OA
ATOM     19  H   UNL     1      -1.708  19.353 -23.965  1.00  0.00     0.293 HD
ENDBRANCH  15  18
BRANCH  17  20
ATOM     20  O   UNL     1       0.125  15.876 -24.012  1.00  0.00    -0.504 OA
ATOM     21  H   UNL     1       0.181  15.272 -23.205  1.00  0.00     0.293 HD
ENDBRANCH  17  20
ENDBRANCH   1  12
BRANCH   2  22
ATOM     22  O   UNL     1      -4.280  13.038 -25.000  1.00  0.00    -0.502 OA
ATOM     23  H   UNL     1      -3.706  12.503 -24.360  1.00  0.00     0.293 HD
ENDBRANCH   2  22
BRANCH   6  24
ATOM     24  O   UNL     1      -5.703  10.026 -29.156  1.00  0.00    -0.507 OA
ATOM     25  H   UNL     1      -5.477   9.045 -29.085  1.00  0.00     0.293 HD
ENDBRANCH   6  24
BRANCH   8  26
ATOM     26  O   UNL     1      -3.141  12.124 -32.633  1.00  0.00    -0.508 OA
ATOM     27  H   UNL     1      -2.435  12.776 -32.957  1.00  0.00     0.293 HD
ENDBRANCH   8  26
TORSDOF 6
ENDMDL
MODEL 2
REMARK VINA RESULT:    -5.729      3.653      6.269
REMARK INTER + INTRA:          -7.193
REMARK INTER:                  -6.892
REMARK INTRA:                  -0.301
REMARK UNBOUND:                -0.291
REMARK SMILES O=c1c(O)c(-c2ccc(O)c(O)c2)oc2cc(O)cc(O)c12
REMARK SMILES IDX 5 1 3 2 2 3 1 4 22 5 20 6 19 7 17 8 16 9 15 10 14 11 6 12
REMARK SMILES IDX 7 13 8 14 9 15 13 16 11 17 10 18 12 20 4 22 21 24 18 26
REMARK H PARENT 10 19 12 21 4 23 21 25 18 27
REMARK Flexibility Score: inf
ROOT
ATOM      1  C   UNL     1      -4.455  15.160 -27.980  1.00  0.00     0.180 A 
ATOM      2  C   UNL     1      -3.410  16.078 -27.788  1.00  0.00     0.208 A 
ATOM      3  C   UNL     1      -3.501  17.349 -28.379  1.00  0.00     0.238 A 
ATOM      4  O   UNL     1      -2.587  18.185 -28.157  1.00  0.00    -0.285 OA
ATOM      5  C   UNL     1      -4.629  17.679 -29.168  1.00  0.00     0.111 A 
ATOM      6  C   UNL     1      -4.807  18.921 -29.847  1.00  0.00     0.134 A 
ATOM      7  C   UNL     1      -6.021  19.188 -30.492  1.00  0.00     0.093 A 
ATOM      8  C   UNL     1      -7.038  18.231 -30.538  1.00  0.00     0.123 A 
ATOM      9  C   UNL     1      -6.849  16.993 -29.930  1.00  0.00     0.094 A 
ATOM     10  C   UNL     1      -5.664  16.710 -29.247  1.00  0.00     0.146 A 
ATOM     11  O   UNL     1      -5.530  15.522 -28.672  1.00  0.00    -0.452 OA
ENDROOT
BRANCH   1  12
ATOM     12  C   UNL     1      -4.419  13.793 -27.410  1.00  0.00     0.025 A 
ATOM     13  C   UNL     1      -3.655  12.775 -28.000  1.00  0.00     0.016 A 
ATOM     14  C   UNL     1      -3.655  11.489 -27.458  1.00  0.00     0.051 A 
ATOM     15  C   UNL     1      -4.425  11.188 -26.329  1.00  0.00     0.157 A 
ATOM     16  C   UNL     1      -5.211  13.490 -26.291  1.00  0.00     0.062 A 
ATOM     17  C   UNL     1      -5.218  12.202 -25.740  1.00  0.00     0.158 A 
BRANCH  15  18
ATOM     18  O   UNL     1      -4.378   9.884 -25.835  1.00  0.00    -0.504 OA
ATOM     19  H   UNL     1      -5.165   9.249 -25.839  1.00  0.00     0.293 HD
ENDBRANCH  15  18
BRANCH  17  20
ATOM     20  O   UNL     1      -6.018  11.977 -24.619  1.00  0.00    -0.504 OA
ATOM     21  H   UNL     1      -5.951  12.505 -23.761  1.00  0.00     0.293 HD
ENDBRANCH  17  20
ENDBRANCH   1  12
BRANCH   2  22
ATOM     22  O   UNL     1      -2.315  15.740 -26.986  1.00  0.00    -0.502 OA
ATOM     23  H   UNL     1      -2.030  14.780 -26.831  1.00  0.00     0.293 HD
ENDBRANCH   2  22
BRANCH   6  24
ATOM     24  O   UNL     1      -3.821  19.908 -29.940  1.00  0.00    -0.507 OA
ATOM     25  H   UNL     1      -2.829  19.737 -29.879  1.00  0.00     0.293 HD
ENDBRANCH   6  24
BRANCH   8  26
ATOM     26  O   UNL     1      -8.236  18.498 -31.195  1.00  0.00    -0.508 OA
ATOM     27  H   UNL     1      -8.765  17.765 -31.653  1.00  0.00     0.293 HD
ENDBRANCH   8  26
TORSDOF 6
ENDMDL
MODEL 3
REMARK VINA RESULT:    -5.573      2.513      6.832
REMARK INTER + INTRA:          -7.005
REMARK INTER:                  -6.689
REMARK INTRA:                  -0.316
REMARK UNBOUND:                -0.291
REMARK SMILES O=c1c(O)c(-c2ccc(O)c(O)c2)oc2cc(O)cc(O)c12
REMARK SMILES IDX 5 1 3 2 2 3 1 4 22 5 20 6 19 7 17 8 16 9 15 10 14 11 6 12
REMARK SMILES IDX 7 13 8 14 9 15 13 16 11 17 10 18 12 20 4 22 21 24 18 26
REMARK H PARENT 10 19 12 21 4 23 21 25 18 27
REMARK Flexibility Score: inf
ROOT
ATOM      1  C   UNL     1      -3.906  14.832 -26.609  1.00  0.00     0.180 A 
ATOM      2  C   UNL     1      -4.133  15.543 -27.800  1.00  0.00     0.208 A 
ATOM      3  C   UNL     1      -3.478  16.769 -27.997  1.00  0.00     0.238 A 
ATOM      4  O   UNL     1      -3.644  17.374 -29.089  1.00  0.00    -0.285 OA
ATOM      5  C   UNL     1      -2.619  17.278 -26.994  1.00  0.00     0.111 A 
ATOM      6  C   UNL     1      -1.936  18.529 -27.070  1.00  0.00     0.134 A 
ATOM      7  C   UNL     1      -1.009  18.871 -26.078  1.00  0.00     0.093 A 
ATOM      8  C   UNL     1      -0.789  18.038 -24.979  1.00  0.00     0.123 A 
ATOM      9  C   UNL     1      -1.495  16.843 -24.866  1.00  0.00     0.094 A 
ATOM     10  C   UNL     1      -2.399  16.456 -25.858  1.00  0.00     0.146 A 
ATOM     11  O   UNL     1      -3.043  15.304 -25.716  1.00  0.00    -0.452 OA
ENDROOT
BRANCH   1  12
ATOM     12  C   UNL     1      -4.578  13.545 -26.319  1.00  0.00     0.025 A 
ATOM     13  C   UNL     1      -5.745  13.489 -25.543  1.00  0.00     0.016 A 
ATOM     14  C   UNL     1      -6.348  12.262 -25.263  1.00  0.00     0.051 A 
ATOM     15  C   UNL     1      -5.794  11.068 -25.737  1.00  0.00     0.157 A 
ATOM     16  C   UNL     1      -4.006  12.348 -26.777  1.00  0.00     0.062 A 
ATOM     17  C   UNL     1      -4.604  11.111 -26.502  1.00  0.00     0.158 A 
BRANCH  15  18
ATOM     18  O   UNL     1      -6.448   9.875 -25.425  1.00  0.00    -0.504 OA
ATOM     19  H   UNL     1      -7.446   9.739 -25.504  1.00  0.00     0.293 HD
ENDBRANCH  15  18
BRANCH  17  20
ATOM     20  O   UNL     1      -3.987   9.963 -27.002  1.00  0.00    -0.504 OA
ATOM     21  H   UNL     1      -4.050   9.661 -27.963  1.00  0.00     0.293 HD
ENDBRANCH  17  20
ENDBRANCH   1  12
BRANCH   2  22
ATOM     22  O   UNL     1      -4.968  15.011 -28.787  1.00  0.00    -0.502 OA
ATOM     23  H   UNL     1      -4.627  14.396 -29.515  1.00  0.00     0.293 HD
ENDBRANCH   2  22
BRANCH   6  24
ATOM     24  O   UNL     1      -2.151  19.475 -28.077  1.00  0.00    -0.507 OA
ATOM     25  H   UNL     1      -1.820  20.428 -28.050  1.00  0.00     0.293 HD
ENDBRANCH   6  24
BRANCH   8  26
ATOM     26  O   UNL     1       0.123  18.393 -23.988  1.00  0.00    -0.508 OA
ATOM     27  H   UNL     1       0.416  19.355 -23.857  1.00  0.00     0.293 HD
ENDBRANCH   8  26
TORSDOF 6
ENDMDL
MODEL 4
REMARK VINA RESULT:    -5.528      3.690      4.770
REMARK INTER + INTRA:          -6.950
REMARK INTER:                  -6.630
REMARK INTRA:                  -0.320
REMARK UNBOUND:                -0.291
REMARK SMILES O=c1c(O)c(-c2ccc(O)c(O)c2)oc2cc(O)cc(O)c12
REMARK SMILES IDX 5 1 3 2 2 3 1 4 22 5 20 6 19 7 17 8 16 9 15 10 14 11 6 12
REMARK SMILES IDX 7 13 8 14 9 15 13 16 11 17 10 18 12 20 4 22 21 24 18 26
REMARK H PARENT 10 19 12 21 4 23 21 25 18 27
REMARK Flexibility Score: inf
ROOT
ATOM      1  C   UNL     1      -5.012  15.540 -28.729  1.00  0.00     0.180 A 
ATOM      2  C   UNL     1      -5.366  15.213 -27.410  1.00  0.00     0.208 A 
ATOM      3  C   UNL     1      -5.141  13.906 -26.949  1.00  0.00     0.238 A 
ATOM      4  O   UNL     1      -5.410  13.634 -25.749  1.00  0.00    -0.285 OA
ATOM      5  C   UNL     1      -4.581  12.939 -27.817  1.00  0.00     0.111 A 
ATOM      6  C   UNL     1      -4.348  11.575 -27.468  1.00  0.00     0.134 A 
ATOM      7  C   UNL     1      -3.667  10.740 -28.364  1.00  0.00     0.093 A 
ATOM      8  C   UNL     1      -3.272  11.202 -29.621  1.00  0.00     0.123 A 
ATOM      9  C   UNL     1      -3.549  12.514 -29.994  1.00  0.00     0.094 A 
ATOM     10  C   UNL     1      -4.193  13.382 -29.108  1.00  0.00     0.146 A 
ATOM     11  O   UNL     1      -4.428  14.629 -29.499  1.00  0.00    -0.452 OA
ENDROOT
BRANCH   1  12
ATOM     12  C   UNL     1      -5.241  16.890 -29.295  1.00  0.00     0.025 A 
ATOM     13  C   UNL     1      -4.255  17.886 -29.231  1.00  0.00     0.016 A 
ATOM     14  C   UNL     1      -4.503  19.158 -29.749  1.00  0.00     0.051 A 
ATOM     15  C   UNL     1      -5.739  19.466 -30.328  1.00  0.00     0.157 A 
ATOM     16  C   UNL     1      -6.490  17.202 -29.854  1.00  0.00     0.062 A 
ATOM     17  C   UNL     1      -6.748  18.475 -30.378  1.00  0.00     0.158 A 
BRANCH  15  18
ATOM     18  O   UNL     1      -5.921  20.755 -30.831  1.00  0.00    -0.504 OA
ATOM     19  H   UNL     1      -6.403  20.962 -31.695  1.00  0.00     0.293 HD
ENDBRANCH  15  18
BRANCH  17  20
ATOM     20  O   UNL     1      -8.009  18.710 -30.931  1.00  0.00    -0.504 OA
ATOM     21  H   UNL     1      -8.777  19.130 -30.428  1.00  0.00     0.293 HD
ENDBRANCH  17  20
ENDBRANCH   1  12
BRANCH   2  22
ATOM     22  O   UNL     1      -5.897  16.189 -26.562  1.00  0.00    -0.502 OA
ATOM     23  H   UNL     1      -6.601  15.979 -25.864  1.00  0.00     0.293 HD
ENDBRANCH   2  22
BRANCH   6  24
ATOM     24  O   UNL     1      -4.782  10.989 -26.276  1.00  0.00    -0.507 OA
ATOM     25  H   UNL     1      -4.251  10.322 -25.736  1.00  0.00     0.293 HD
ENDBRANCH   6  24
BRANCH   8  26
ATOM     26  O   UNL     1      -2.610  10.360 -30.512  1.00  0.00    -0.508 OA
ATOM     27  H   UNL     1      -2.210  10.710 -31.375  1.00  0.00     0.293 HD
ENDBRANCH   8  26
TORSDOF 6
ENDMDL
MODEL 5
REMARK VINA RESULT:    -5.499      2.235      2.845
REMARK INTER + INTRA:          -6.916
REMARK INTER:                  -6.585
REMARK INTRA:                  -0.330
REMARK UNBOUND:                -0.291
REMARK SMILES O=c1c(O)c(-c2ccc(O)c(O)c2)oc2cc(O)cc(O)c12
REMARK SMILES IDX 5 1 3 2 2 3 1 4 22 5 20 6 19 7 17 8 16 9 15 10 14 11 6 12
REMARK SMILES IDX 7 13 8 14 9 15 13 16 11 17 10 18 12 20 4 22 21 24 18 26
REMARK H PARENT 10 19 12 21 4 23 21 25 18 27
REMARK Flexibility Score: inf
ROOT
ATOM      1  C   UNL     1      -3.195  15.446 -26.883  1.00  0.00     0.180 A 
ATOM      2  C   UNL     1      -4.427  15.207 -26.251  1.00  0.00     0.208 A 
ATOM      3  C   UNL     1      -4.936  13.899 -26.223  1.00  0.00     0.238 A 
ATOM      4  O   UNL     1      -6.014  13.683 -25.608  1.00  0.00    -0.285 OA
ATOM      5  C   UNL     1      -4.215  12.849 -26.841  1.00  0.00     0.111 A 
ATOM      6  C   UNL     1      -4.657  11.494 -26.909  1.00  0.00     0.134 A 
ATOM      7  C   UNL     1      -3.801  10.515 -27.430  1.00  0.00     0.093 A 
ATOM      8  C   UNL     1      -2.548  10.853 -27.947  1.00  0.00     0.123 A 
ATOM      9  C   UNL     1      -2.134  12.182 -27.940  1.00  0.00     0.094 A 
ATOM     10  C   UNL     1      -2.949  13.177 -27.393  1.00  0.00     0.146 A 
ATOM     11  O   UNL     1      -2.511  14.430 -27.396  1.00  0.00    -0.452 OA
ENDROOT
BRANCH   1  12
ATOM     12  C   UNL     1      -2.606  16.802 -26.975  1.00  0.00     0.025 A 
ATOM     13  C   UNL     1      -2.870  17.641 -28.067  1.00  0.00     0.016 A 
ATOM     14  C   UNL     1      -2.285  18.906 -28.143  1.00  0.00     0.051 A 
ATOM     15  C   UNL     1      -1.416  19.353 -27.142  1.00  0.00     0.157 A 
ATOM     16  C   UNL     1      -1.717  17.238 -25.980  1.00  0.00     0.062 A 
ATOM     17  C   UNL     1      -1.124  18.506 -26.047  1.00  0.00     0.158 A 
BRANCH  15  18
ATOM     18  O   UNL     1      -0.866  20.629 -27.277  1.00  0.00    -0.504 OA
ATOM     19  H   UNL     1      -0.735  21.098 -28.162  1.00  0.00     0.293 HD
ENDBRANCH  15  18
BRANCH  17  20
ATOM     20  O   UNL     1      -0.261  18.878 -25.015  1.00  0.00    -0.504 OA
ATOM     21  H   UNL     1       0.621  19.349 -25.158  1.00  0.00     0.293 HD
ENDBRANCH  17  20
ENDBRANCH   1  12
BRANCH   2  22
ATOM     22  O   UNL     1      -5.112  16.255 -25.627  1.00  0.00    -0.502 OA
ATOM     23  H   UNL     1      -6.103  16.211 -25.422  1.00  0.00     0.293 HD
ENDBRANCH   2  22
BRANCH   6  24
ATOM     24  O   UNL     1      -5.924  11.064 -26.505  1.00  0.00    -0.507 OA
ATOM     25  H   UNL     1      -6.497  11.530 -25.818  1.00  0.00     0.293 HD
ENDBRANCH   6  24
BRANCH   8  26
ATOM     26  O   UNL     1      -1.711   9.875 -28.478  1.00  0.00    -0.508 OA
ATOM     27  H   UNL     1      -2.012   8.912 -28.570  1.00  0.00     0.293 HD
ENDBRANCH   8  26
TORSDOF 6
ENDMDL
MODEL 6
REMARK VINA RESULT:    -5.317      1.577      3.373
REMARK INTER + INTRA:          -6.696
REMARK INTER:                  -6.754
REMARK INTRA:                   0.058
REMARK UNBOUND:                -0.291
REMARK SMILES O=c1c(O)c(-c2ccc(O)c(O)c2)oc2cc(O)cc(O)c12
REMARK SMILES IDX 5 1 3 2 2 3 1 4 22 5 20 6 19 7 17 8 16 9 15 10 14 11 6 12
REMARK SMILES IDX 7 13 8 14 9 15 13 16 11 17 10 18 12 20 4 22 21 24 18 26
REMARK H PARENT 10 19 12 21 4 23 21 25 18 27
REMARK Flexibility Score: inf
ROOT
ATOM      1  C   UNL     1      -3.253  14.447 -26.860  1.00  0.00     0.180 A 
ATOM      2  C   UNL     1      -3.398  14.119 -28.219  1.00  0.00     0.208 A 
ATOM      3  C   UNL     1      -4.055  12.927 -28.566  1.00  0.00     0.238 A 
ATOM      4  O   UNL     1      -4.230  12.667 -29.785  1.00  0.00    -0.285 OA
ATOM      5  C   UNL     1      -4.543  12.071 -27.550  1.00  0.00     0.111 A 
ATOM      6  C   UNL     1      -5.187  10.820 -27.786  1.00  0.00     0.134 A 
ATOM      7  C   UNL     1      -5.747  10.118 -26.711  1.00  0.00     0.093 A 
ATOM      8  C   UNL     1      -5.626  10.589 -25.402  1.00  0.00     0.123 A 
ATOM      9  C   UNL     1      -4.946  11.778 -25.156  1.00  0.00     0.094 A 
ATOM     10  C   UNL     1      -4.410  12.521 -26.210  1.00  0.00     0.146 A 
ATOM     11  O   UNL     1      -3.779  13.655 -25.933  1.00  0.00    -0.452 OA
ENDROOT
BRANCH   1  12
ATOM     12  C   UNL     1      -2.550  15.673 -26.416  1.00  0.00     0.025 A 
ATOM     13  C   UNL     1      -2.821  16.921 -26.997  1.00  0.00     0.016 A 
ATOM     14  C   UNL     1      -2.129  18.059 -26.578  1.00  0.00     0.051 A 
ATOM     15  C   UNL     1      -1.148  17.974 -25.585  1.00  0.00     0.157 A 
ATOM     16  C   UNL     1      -1.550  15.579 -25.436  1.00  0.00     0.062 A 
ATOM     17  C   UNL     1      -0.850  16.716 -25.008  1.00  0.00     0.158 A 
BRANCH  15  18
ATOM     18  O   UNL     1      -0.495  19.149 -25.209  1.00  0.00    -0.504 OA
ATOM     19  H   UNL     1      -0.488  19.516 -24.267  1.00  0.00     0.293 HD
ENDBRANCH  15  18
BRANCH  17  20
ATOM     20  O   UNL     1       0.121  16.550 -24.020  1.00  0.00    -0.504 OA
ATOM     21  H   UNL     1       1.008  16.092 -24.171  1.00  0.00     0.293 HD
ENDBRANCH  17  20
ENDBRANCH   1  12
BRANCH   2  22
ATOM     22  O   UNL     1      -2.928  14.991 -29.206  1.00  0.00    -0.502 OA
ATOM     23  H   UNL     1      -2.363  14.676 -29.985  1.00  0.00     0.293 HD
ENDBRANCH   2  22
BRANCH   6  24
ATOM     24  O   UNL     1      -5.281  10.215 -29.043  1.00  0.00    -0.507 OA
ATOM     25  H   UNL     1      -6.085  10.274 -29.651  1.00  0.00     0.293 HD
ENDBRANCH   6  24
BRANCH   8  26
ATOM     26  O   UNL     1      -6.171   9.876 -24.337  1.00  0.00    -0.508 OA
ATOM     27  H   UNL     1      -5.637   9.172 -23.841  1.00  0.00     0.293 HD
ENDBRANCH   8  26
TORSDOF 6
ENDMDL
MODEL 7
REMARK VINA RESULT:    -5.214      2.362      6.928
REMARK INTER + INTRA:          -6.573
REMARK INTER:                  -6.289
REMARK INTRA:                  -0.283
REMARK UNBOUND:                -0.291
REMARK SMILES O=c1c(O)c(-c2ccc(O)c(O)c2)oc2cc(O)cc(O)c12
REMARK SMILES IDX 5 1 3 2 2 3 1 4 22 5 20 6 19 7 17 8 16 9 15 10 14 11 6 12
REMARK SMILES IDX 7 13 8 14 9 15 13 16 11 17 10 18 12 20 4 22 21 24 18 26
REMARK H PARENT 10 19 12 21 4 23 21 25 18 27
REMARK Flexibility Score: inf
ROOT
ATOM      1  C   UNL     1      -2.635  15.775 -26.475  1.00  0.00     0.180 A 
ATOM      2  C   UNL     1      -1.786  16.070 -25.396  1.00  0.00     0.208 A 
ATOM      3  C   UNL     1      -1.197  17.343 -25.320  1.00  0.00     0.238 A 
ATOM      4  O   UNL     1      -0.481  17.619 -24.322  1.00  0.00    -0.285 OA
ATOM      5  C   UNL     1      -1.452  18.298 -26.333  1.00  0.00     0.111 A 
ATOM      6  C   UNL     1      -0.878  19.603 -26.379  1.00  0.00     0.134 A 
ATOM      7  C   UNL     1      -1.303  20.511 -27.357  1.00  0.00     0.093 A 
ATOM      8  C   UNL     1      -2.233  20.138 -28.330  1.00  0.00     0.123 A 
ATOM      9  C   UNL     1      -2.754  18.847 -28.330  1.00  0.00     0.094 A 
ATOM     10  C   UNL     1      -2.377  17.931 -27.345  1.00  0.00     0.146 A 
ATOM     11  O   UNL     1      -2.907  16.714 -27.374  1.00  0.00    -0.452 OA
ENDROOT
BRANCH   1  12
ATOM     12  C   UNL     1      -3.272  14.447 -26.636  1.00  0.00     0.025 A 
ATOM     13  C   UNL     1      -2.790  13.514 -27.565  1.00  0.00     0.016 A 
ATOM     14  C   UNL     1      -3.421  12.278 -27.716  1.00  0.00     0.051 A 
ATOM     15  C   UNL     1      -4.551  11.954 -26.957  1.00  0.00     0.157 A 
ATOM     16  C   UNL     1      -4.419  14.136 -25.889  1.00  0.00     0.062 A 
ATOM     17  C   UNL     1      -5.060  12.898 -26.033  1.00  0.00     0.158 A 
BRANCH  15  18
ATOM     18  O   UNL     1      -5.133  10.701 -27.154  1.00  0.00    -0.504 OA
ATOM     19  H   UNL     1      -6.091  10.562 -27.446  1.00  0.00     0.293 HD
ENDBRANCH  15  18
BRANCH  17  20
ATOM     20  O   UNL     1      -6.187  12.652 -25.247  1.00  0.00    -0.504 OA
ATOM     21  H   UNL     1      -6.646  13.352 -24.683  1.00  0.00     0.293 HD
ENDBRANCH  17  20
ENDBRANCH   1  12
BRANCH   2  22
ATOM     22  O   UNL     1      -1.565  15.119 -24.394  1.00  0.00    -0.502 OA
ATOM     23  H   UNL     1      -2.140  14.292 -24.293  1.00  0.00     0.293 HD
ENDBRANCH   2  22
BRANCH   6  24
ATOM     24  O   UNL     1       0.125  20.046 -25.511  1.00  0.00    -0.507 OA
ATOM     25  H   UNL     1      -0.037  20.413 -24.585  1.00  0.00     0.293 HD
ENDBRANCH   6  24
BRANCH   8  26
ATOM     26  O   UNL     1      -2.639  21.043 -29.309  1.00  0.00    -0.508 OA
ATOM     27  H   UNL     1      -3.606  21.103 -29.607  1.00  0.00     0.293 HD
ENDBRANCH   8  26
TORSDOF 6
ENDMDL
MODEL 8
REMARK VINA RESULT:    -5.170      3.337      5.373
REMARK INTER + INTRA:          -6.520
REMARK INTER:                  -6.185
REMARK INTRA:                  -0.335
REMARK UNBOUND:                -0.291
REMARK SMILES O=c1c(O)c(-c2ccc(O)c(O)c2)oc2cc(O)cc(O)c12
REMARK SMILES IDX 5 1 3 2 2 3 1 4 22 5 20 6 19 7 17 8 16 9 15 10 14 11 6 12
REMARK SMILES IDX 7 13 8 14 9 15 13 16 11 17 10 18 12 20 4 22 21 24 18 26
REMARK H PARENT 10 19 12 21 4 23 21 25 18 27
REMARK Flexibility Score: inf
ROOT
ATOM      1  C   UNL     1      -4.583  14.645 -28.705  1.00  0.00     0.180 A 
ATOM      2  C   UNL     1      -3.821  13.749 -29.473  1.00  0.00     0.208 A 
ATOM      3  C   UNL     1      -3.553  12.469 -28.961  1.00  0.00     0.238 A 
ATOM      4  O   UNL     1      -2.917  11.652 -29.678  1.00  0.00    -0.285 OA
ATOM      5  C   UNL     1      -4.036  12.107 -27.680  1.00  0.00     0.111 A 
ATOM      6  C   UNL     1      -3.791  10.853 -27.047  1.00  0.00     0.134 A 
ATOM      7  C   UNL     1      -4.428  10.555 -25.836  1.00  0.00     0.093 A 
ATOM      8  C   UNL     1      -5.248  11.492 -25.203  1.00  0.00     0.123 A 
ATOM      9  C   UNL     1      -5.445  12.741 -25.785  1.00  0.00     0.094 A 
ATOM     10  C   UNL     1      -4.854  13.055 -27.011  1.00  0.00     0.146 A 
ATOM     11  O   UNL     1      -5.077  14.254 -27.536  1.00  0.00    -0.452 OA
ENDROOT
BRANCH   1  12
ATOM     12  C   UNL     1      -4.885  16.020 -29.167  1.00  0.00     0.025 A 
ATOM     13  C   UNL     1      -4.021  17.089 -28.891  1.00  0.00     0.016 A 
ATOM     14  C   UNL     1      -4.339  18.381 -29.316  1.00  0.00     0.051 A 
ATOM     15  C   UNL     1      -5.527  18.633 -30.010  1.00  0.00     0.157 A 
ATOM     16  C   UNL     1      -6.089  16.272 -29.842  1.00  0.00     0.062 A 
ATOM     17  C   UNL     1      -6.417  17.564 -30.273  1.00  0.00     0.158 A 
BRANCH  15  18
ATOM     18  O   UNL     1      -5.784  19.945 -30.410  1.00  0.00    -0.504 OA
ATOM     19  H   UNL     1      -5.613  20.296 -31.342  1.00  0.00     0.293 HD
ENDBRANCH  15  18
BRANCH  17  20
ATOM     20  O   UNL     1      -7.624  17.739 -30.952  1.00  0.00    -0.504 OA
ATOM     21  H   UNL     1      -8.042  18.639 -31.139  1.00  0.00     0.293 HD
ENDBRANCH  17  20
ENDBRANCH   1  12
BRANCH   2  22
ATOM     22  O   UNL     1      -3.372  14.118 -30.745  1.00  0.00    -0.502 OA
ATOM     23  H   UNL     1      -3.875  13.877 -31.590  1.00  0.00     0.293 HD
ENDBRANCH   2  22
BRANCH   6  24
ATOM     24  O   UNL     1      -2.917   9.883 -27.547  1.00  0.00    -0.507 OA
ATOM     25  H   UNL     1      -3.140   9.236 -28.289  1.00  0.00     0.293 HD
ENDBRANCH   6  24
BRANCH   8  26
ATOM     26  O   UNL     1      -5.865  11.193 -23.991  1.00  0.00    -0.508 OA
ATOM     27  H   UNL     1      -6.777  10.753 -23.954  1.00  0.00     0.293 HD
ENDBRANCH   8  26
TORSDOF 6
ENDMDL
MODEL 9
REMARK VINA RESULT:    -5.145      3.714      6.792
REMARK INTER + INTRA:          -6.489
REMARK INTER:                  -6.608
REMARK INTRA:                   0.119
REMARK UNBOUND:                -0.291
REMARK SMILES O=c1c(O)c(-c2ccc(O)c(O)c2)oc2cc(O)cc(O)c12
REMARK SMILES IDX 5 1 3 2 2 3 1 4 22 5 20 6 19 7 17 8 16 9 15 10 14 11 6 12
REMARK SMILES IDX 7 13 8 14 9 15 13 16 11 17 10 18 12 20 4 22 21 24 18 26
REMARK H PARENT 10 19 12 21 4 23 21 25 18 27
REMARK Flexibility Score: inf
ROOT
ATOM      1  C   UNL     1      -4.111  16.637 -28.238  1.00  0.00     0.180 A 
ATOM      2  C   UNL     1      -3.678  15.313 -28.419  1.00  0.00     0.208 A 
ATOM      3  C   UNL     1      -2.623  14.826 -27.630  1.00  0.00     0.238 A 
ATOM      4  O   UNL     1      -2.277  13.622 -27.760  1.00  0.00    -0.285 OA
ATOM      5  C   UNL     1      -2.004  15.675 -26.681  1.00  0.00     0.111 A 
ATOM      6  C   UNL     1      -0.900  15.300 -25.858  1.00  0.00     0.134 A 
ATOM      7  C   UNL     1      -0.453  16.178 -24.862  1.00  0.00     0.093 A 
ATOM      8  C   UNL     1      -1.025  17.442 -24.706  1.00  0.00     0.123 A 
ATOM      9  C   UNL     1      -2.062  17.840 -25.545  1.00  0.00     0.094 A 
ATOM     10  C   UNL     1      -2.556  16.973 -26.523  1.00  0.00     0.146 A 
ATOM     11  O   UNL     1      -3.553  17.388 -27.294  1.00  0.00    -0.452 OA
ENDROOT
BRANCH   1  12
ATOM     12  C   UNL     1      -5.200  17.228 -29.049  1.00  0.00     0.025 A 
ATOM     13  C   UNL     1      -6.367  16.507 -29.342  1.00  0.00     0.016 A 
ATOM     14  C   UNL     1      -7.370  17.077 -30.128  1.00  0.00     0.051 A 
ATOM     15  C   UNL     1      -7.224  18.367 -30.648  1.00  0.00     0.157 A 
ATOM     16  C   UNL     1      -5.040  18.514 -29.588  1.00  0.00     0.062 A 
ATOM     17  C   UNL     1      -6.041  19.095 -30.378  1.00  0.00     0.158 A 
BRANCH  15  18
ATOM     18  O   UNL     1      -8.265  18.880 -31.424  1.00  0.00    -0.504 OA
ATOM     19  H   UNL     1      -8.239  19.782 -31.879  1.00  0.00     0.293 HD
ENDBRANCH  15  18
BRANCH  17  20
ATOM     20  O   UNL     1      -5.819  20.383 -30.869  1.00  0.00    -0.504 OA
ATOM     21  H   UNL     1      -5.857  20.629 -31.847  1.00  0.00     0.293 HD
ENDBRANCH  17  20
ENDBRANCH   1  12
BRANCH   2  22
ATOM     22  O   UNL     1      -4.319  14.484 -29.346  1.00  0.00    -0.502 OA
ATOM     23  H   UNL     1      -4.507  13.506 -29.162  1.00  0.00     0.293 HD
ENDBRANCH   2  22
BRANCH   6  24
ATOM     24  O   UNL     1      -0.199  14.099 -25.992  1.00  0.00    -0.507 OA
ATOM     25  H   UNL     1       0.191  13.754 -26.857  1.00  0.00     0.293 HD
ENDBRANCH   6  24
BRANCH   8  26
ATOM     26  O   UNL     1      -0.563  18.315 -23.724  1.00  0.00    -0.508 OA
ATOM     27  H   UNL     1       0.330  18.787 -23.811  1.00  0.00     0.293 HD
ENDBRANCH   8  26
TORSDOF 6
ENDMDL
