MODEL 1
REMARK VINA RESULT:    -2.844      0.000      0.000
REMARK INTER + INTRA:          -6.886
REMARK INTER:                  -6.169
REMARK INTRA:                  -0.717
REMARK UNBOUND:                -0.717
REMARK SMILES CCCCCCCCCCCCCCCCCCCCCC(=O)[O-]
REMARK SMILES IDX 12 1 11 2 10 3 9 4 8 5 7 6 6 7 5 8 4 9 3 10 2 11 1 12 13 13
REMARK SMILES IDX 14 14 15 15 16 16 17 17 18 18 19 19 20 20 21 21 22 22 23 23
REMARK SMILES IDX 24 24
REMARK H PARENT
REMARK Flexibility Score: inf
ROOT
ATOM      1  C   UNL     1      19.804 -30.730  13.616  1.00  0.00     0.000 C 
ENDROOT
BRANCH   1   2
ATOM      2  C   UNL     1      18.933 -31.778  12.901  1.00  0.00     0.000 C 
BRANCH   2   3
ATOM      3  C   UNL     1      17.442 -31.711  13.290  1.00  0.00     0.000 C 
BRANCH   3   4
ATOM      4  C   UNL     1      17.200 -32.145  14.744  1.00  0.00    -0.000 C 
BRANCH   4   5
ATOM      5  C   UNL     1      16.041 -31.360  15.370  1.00  0.00    -0.000 C 
BRANCH   5   6
ATOM      6  C   UNL     1      15.180 -30.695  14.285  1.00  0.00    -0.000 C 
BRANCH   6   7
ATOM      7  C   UNL     1      13.995 -31.571  13.851  1.00  0.00    -0.000 C 
BRANCH   7   8
ATOM      8  C   UNL     1      12.679 -31.170  14.538  1.00  0.00    -0.000 C 
BRANCH   8   9
ATOM      9  C   UNL     1      11.446 -31.457  13.665  1.00  0.00    -0.000 C 
BRANCH   9  10
ATOM     10  C   UNL     1      11.083 -32.951  13.630  1.00  0.00    -0.000 C 
BRANCH  10  11
ATOM     11  C   UNL     1       9.566 -33.188  13.683  1.00  0.00    -0.003 C 
ATOM     12  C   UNL     1       9.204 -34.585  14.188  1.00  0.00     0.004 C 
ENDBRANCH  10  11
ENDBRANCH   9  10
ENDBRANCH   8   9
ENDBRANCH   7   8
ENDBRANCH   6   7
ENDBRANCH   5   6
ENDBRANCH   4   5
ENDBRANCH   3   4
ENDBRANCH   2   3
ENDBRANCH   1   2
BRANCH   1  13
ATOM     13  C   UNL     1      19.847 -29.383  12.876  1.00  0.00     0.000 C 
BRANCH  13  14
ATOM     14  C   UNL     1      21.244 -28.743  12.895  1.00  0.00     0.000 C 
BRANCH  14  15
ATOM     15  C   UNL     1      21.288 -27.450  13.730  1.00  0.00     0.000 C 
BRANCH  15  16
ATOM     16  C   UNL     1      20.547 -26.285  13.054  1.00  0.00     0.000 C 
BRANCH  16  17
ATOM     17  C   UNL     1      20.853 -24.895  13.643  1.00  0.00     0.000 C 
BRANCH  17  18
ATOM     18  C   UNL     1      19.888 -23.789  13.164  1.00  0.00     0.000 C 
BRANCH  18  19
ATOM     19  C   UNL     1      19.514 -22.811  14.290  1.00  0.00     0.000 C 
BRANCH  19  20
ATOM     20  C   UNL     1      20.168 -21.425  14.128  1.00  0.00     0.006 C 
BRANCH  20  21
ATOM     21  C   UNL     1      20.160 -20.577  15.412  1.00  0.00     0.053 C 
BRANCH  21  22
ATOM     22  C   UNL     1      20.071 -19.109  15.130  1.00  0.00     0.041 C 
ATOM     23  O   UNL     1      20.057 -18.282  16.080  1.00  0.00    -0.550 OA
ATOM     24  O   UNL     1      19.982 -18.653  13.820  1.00  0.00    -0.550 OA
ENDBRANCH  21  22
ENDBRANCH  20  21
ENDBRANCH  19  20
ENDBRANCH  18  19
ENDBRANCH  17  18
ENDBRANCH  16  17
ENDBRANCH  15  16
ENDBRANCH  14  15
ENDBRANCH  13  14
ENDBRANCH   1  13
TORSDOF 20
ENDMDL
MODEL 2
REMARK VINA RESULT:    -2.828      6.997     13.071
REMARK INTER + INTRA:          -6.852
REMARK INTER:                  -4.643
REMARK INTRA:                  -2.208
REMARK UNBOUND:                -0.717
REMARK SMILES CCCCCCCCCCCCCCCCCCCCCC(=O)[O-]
REMARK SMILES IDX 12 1 11 2 10 3 9 4 8 5 7 6 6 7 5 8 4 9 3 10 2 11 1 12 13 13
REMARK SMILES IDX 14 14 15 15 16 16 17 17 18 18 19 19 20 20 21 21 22 22 23 23
REMARK SMILES IDX 24 24
REMARK H PARENT
REMARK Flexibility Score: inf
ROOT
ATOM      1  C   UNL     1       6.089 -33.890  13.284  1.00  0.00     0.000 C 
ENDROOT
BRANCH   1   2
ATOM      2  C   UNL     1       7.272 -32.952  12.986  1.00  0.00     0.000 C 
BRANCH   2   3
ATOM      3  C   UNL     1       8.641 -33.539  13.389  1.00  0.00     0.000 C 
BRANCH   3   4
ATOM      4  C   UNL     1       9.812 -32.673  12.898  1.00  0.00    -0.000 C 
BRANCH   4   5
ATOM      5  C   UNL     1      10.812 -32.405  14.030  1.00  0.00    -0.000 C 
BRANCH   5   6
ATOM      6  C   UNL     1      11.796 -31.291  13.640  1.00  0.00    -0.000 C 
BRANCH   6   7
ATOM      7  C   UNL     1      13.172 -31.458  14.303  1.00  0.00    -0.000 C 
BRANCH   7   8
ATOM      8  C   UNL     1      14.097 -30.254  14.055  1.00  0.00    -0.000 C 
BRANCH   8   9
ATOM      9  C   UNL     1      15.543 -30.519  14.506  1.00  0.00    -0.000 C 
BRANCH   9  10
ATOM     10  C   UNL     1      16.077 -31.875  14.012  1.00  0.00    -0.000 C 
BRANCH  10  11
ATOM     11  C   UNL     1      17.371 -32.293  14.726  1.00  0.00    -0.003 C 
ATOM     12  C   UNL     1      18.617 -31.656  14.111  1.00  0.00     0.004 C 
ENDBRANCH  10  11
ENDBRANCH   9  10
ENDBRANCH   8   9
ENDBRANCH   7   8
ENDBRANCH   6   7
ENDBRANCH   5   6
ENDBRANCH   4   5
ENDBRANCH   3   4
ENDBRANCH   2   3
ENDBRANCH   1   2
BRANCH   1  13
ATOM     13  C   UNL     1       6.373 -35.351  12.898  1.00  0.00     0.000 C 
BRANCH  13  14
ATOM     14  C   UNL     1       6.171 -36.321  14.073  1.00  0.00     0.000 C 
BRANCH  14  15
ATOM     15  C   UNL     1       7.481 -36.617  14.825  1.00  0.00     0.000 C 
BRANCH  15  16
ATOM     16  C   UNL     1       7.326 -36.497  16.350  1.00  0.00     0.000 C 
BRANCH  16  17
ATOM     17  C   UNL     1       6.168 -35.593  16.813  1.00  0.00     0.000 C 
BRANCH  17  18
ATOM     18  C   UNL     1       6.630 -34.328  17.569  1.00  0.00     0.000 C 
BRANCH  18  19
ATOM     19  C   UNL     1       6.654 -33.083  16.665  1.00  0.00     0.000 C 
BRANCH  19  20
ATOM     20  C   UNL     1       8.027 -32.387  16.633  1.00  0.00     0.006 C 
BRANCH  20  21
ATOM     21  C   UNL     1       8.938 -32.748  17.819  1.00  0.00     0.053 C 
BRANCH  21  22
ATOM     22  C   UNL     1       9.666 -31.560  18.368  1.00  0.00     0.041 C 
ATOM     23  O   UNL     1      10.080 -30.658  17.593  1.00  0.00    -0.550 OA
ATOM     24  O   UNL     1       9.906 -31.456  19.733  1.00  0.00    -0.550 OA
ENDBRANCH  21  22
ENDBRANCH  20  21
ENDBRANCH  19  20
ENDBRANCH  18  19
ENDBRANCH  17  18
ENDBRANCH  16  17
ENDBRANCH  15  16
ENDBRANCH  14  15
ENDBRANCH  13  14
ENDBRANCH   1  13
TORSDOF 20
ENDMDL
MODEL 3
REMARK VINA RESULT:    -2.296      6.943     10.652
REMARK INTER + INTRA:          -5.698
REMARK INTER:                  -3.388
REMARK INTRA:                  -2.310
REMARK UNBOUND:                -0.717
REMARK SMILES CCCCCCCCCCCCCCCCCCCCCC(=O)[O-]
REMARK SMILES IDX 12 1 11 2 10 3 9 4 8 5 7 6 6 7 5 8 4 9 3 10 2 11 1 12 13 13
REMARK SMILES IDX 14 14 15 15 16 16 17 17 18 18 19 19 20 20 21 21 22 22 23 23
REMARK SMILES IDX 24 24
REMARK H PARENT
REMARK Flexibility Score: inf
ROOT
ATOM      1  C   UNL     1       7.488 -33.286  17.455  1.00  0.00     0.000 C 
ENDROOT
BRANCH   1   2
ATOM      2  C   UNL     1       6.813 -32.600  16.254  1.00  0.00     0.000 C 
BRANCH   2   3
ATOM      3  C   UNL     1       6.046 -33.576  15.337  1.00  0.00     0.000 C 
BRANCH   3   4
ATOM      4  C   UNL     1       6.686 -33.691  13.945  1.00  0.00    -0.000 C 
BRANCH   4   5
ATOM      5  C   UNL     1       8.002 -32.905  13.876  1.00  0.00    -0.000 C 
BRANCH   5   6
ATOM      6  C   UNL     1       9.159 -33.810  13.430  1.00  0.00    -0.000 C 
BRANCH   6   7
ATOM      7  C   UNL     1       9.307 -35.060  14.311  1.00  0.00    -0.000 C 
BRANCH   7   8
ATOM      8  C   UNL     1       9.317 -36.363  13.494  1.00  0.00    -0.000 C 
BRANCH   8   9
ATOM      9  C   UNL     1       7.904 -36.824  13.100  1.00  0.00    -0.000 C 
BRANCH   9  10
ATOM     10  C   UNL     1       7.367 -37.934  14.020  1.00  0.00    -0.000 C 
BRANCH  10  11
ATOM     11  C   UNL     1       6.105 -37.504  14.784  1.00  0.00    -0.003 C 
ATOM     12  C   UNL     1       6.415 -36.968  16.181  1.00  0.00     0.004 C 
ENDBRANCH  10  11
ENDBRANCH   9  10
ENDBRANCH   8   9
ENDBRANCH   7   8
ENDBRANCH   6   7
ENDBRANCH   5   6
ENDBRANCH   4   5
ENDBRANCH   3   4
ENDBRANCH   2   3
ENDBRANCH   1   2
BRANCH   1  13
ATOM     13  C   UNL     1       7.965 -32.287  18.523  1.00  0.00     0.000 C 
BRANCH  13  14
ATOM     14  C   UNL     1       9.487 -32.081  18.499  1.00  0.00     0.000 C 
BRANCH  14  15
ATOM     15  C   UNL     1       9.909 -30.908  17.596  1.00  0.00     0.000 C 
BRANCH  15  16
ATOM     16  C   UNL     1      10.410 -31.374  16.218  1.00  0.00     0.000 C 
BRANCH  16  17
ATOM     17  C   UNL     1      11.796 -30.834  15.819  1.00  0.00     0.000 C 
BRANCH  17  18
ATOM     18  C   UNL     1      12.350 -31.448  14.515  1.00  0.00     0.000 C 
BRANCH  18  19
ATOM     19  C   UNL     1      13.573 -30.682  13.982  1.00  0.00     0.000 C 
BRANCH  19  20
ATOM     20  C   UNL     1      14.883 -31.062  14.699  1.00  0.00     0.006 C 
BRANCH  20  21
ATOM     21  C   UNL     1      16.038 -31.413  13.746  1.00  0.00     0.053 C 
BRANCH  21  22
ATOM     22  C   UNL     1      17.243 -31.931  14.469  1.00  0.00     0.041 C 
ATOM     23  O   UNL     1      18.399 -31.671  14.039  1.00  0.00    -0.550 OA
ATOM     24  O   UNL     1      17.093 -32.718  15.605  1.00  0.00    -0.550 OA
ENDBRANCH  21  22
ENDBRANCH  20  21
ENDBRANCH  19  20
ENDBRANCH  18  19
ENDBRANCH  17  18
ENDBRANCH  16  17
ENDBRANCH  15  16
ENDBRANCH  14  15
ENDBRANCH  13  14
ENDBRANCH   1  13
TORSDOF 20
ENDMDL
MODEL 4
REMARK VINA RESULT:    -2.098      8.126     13.006
REMARK INTER + INTRA:          -5.268
REMARK INTER:                  -2.803
REMARK INTRA:                  -2.465
REMARK UNBOUND:                -0.717
REMARK SMILES CCCCCCCCCCCCCCCCCCCCCC(=O)[O-]
REMARK SMILES IDX 12 1 11 2 10 3 9 4 8 5 7 6 6 7 5 8 4 9 3 10 2 11 1 12 13 13
REMARK SMILES IDX 14 14 15 15 16 16 17 17 18 18 19 19 20 20 21 21 22 22 23 23
REMARK SMILES IDX 24 24
REMARK H PARENT
REMARK Flexibility Score: inf
ROOT
ATOM      1  C   UNL     1       5.877 -35.881  14.154  1.00  0.00     0.000 C 
ENDROOT
BRANCH   1   2
ATOM      2  C   UNL     1       6.469 -37.299  14.090  1.00  0.00     0.000 C 
BRANCH   2   3
ATOM      3  C   UNL     1       7.992 -37.345  14.332  1.00  0.00     0.000 C 
BRANCH   3   4
ATOM      4  C   UNL     1       8.774 -37.683  13.053  1.00  0.00    -0.000 C 
BRANCH   4   5
ATOM      5  C   UNL     1      10.157 -37.020  13.061  1.00  0.00    -0.000 C 
BRANCH   5   6
ATOM      6  C   UNL     1      10.038 -35.500  12.875  1.00  0.00    -0.000 C 
BRANCH   6   7
ATOM      7  C   UNL     1      11.122 -34.723  13.638  1.00  0.00    -0.000 C 
BRANCH   7   8
ATOM      8  C   UNL     1      11.430 -33.357  13.002  1.00  0.00    -0.000 C 
BRANCH   8   9
ATOM      9  C   UNL     1      10.816 -32.188  13.789  1.00  0.00    -0.000 C 
BRANCH   9  10
ATOM     10  C   UNL     1      11.880 -31.223  14.341  1.00  0.00    -0.000 C 
BRANCH  10  11
ATOM     11  C   UNL     1      13.261 -31.445  13.705  1.00  0.00    -0.003 C 
ATOM     12  C   UNL     1      14.403 -31.312  14.711  1.00  0.00     0.004 C 
ENDBRANCH  10  11
ENDBRANCH   9  10
ENDBRANCH   8   9
ENDBRANCH   7   8
ENDBRANCH   6   7
ENDBRANCH   5   6
ENDBRANCH   4   5
ENDBRANCH   3   4
ENDBRANCH   2   3
ENDBRANCH   1   2
BRANCH   1  13
ATOM     13  C   UNL     1       6.180 -35.049  12.896  1.00  0.00     0.000 C 
BRANCH  13  14
ATOM     14  C   UNL     1       6.747 -33.661  13.230  1.00  0.00     0.000 C 
BRANCH  14  15
ATOM     15  C   UNL     1       6.763 -33.378  14.743  1.00  0.00     0.000 C 
BRANCH  15  16
ATOM     16  C   UNL     1       8.186 -33.344  15.323  1.00  0.00     0.000 C 
BRANCH  16  17
ATOM     17  C   UNL     1       8.595 -34.604  16.109  1.00  0.00     0.000 C 
BRANCH  17  18
ATOM     18  C   UNL     1       7.516 -35.097  17.098  1.00  0.00     0.000 C 
BRANCH  18  19
ATOM     19  C   UNL     1       6.850 -33.939  17.861  1.00  0.00     0.000 C 
BRANCH  19  20
ATOM     20  C   UNL     1       7.737 -33.364  18.981  1.00  0.00     0.006 C 
BRANCH  20  21
ATOM     21  C   UNL     1       7.940 -31.841  18.897  1.00  0.00     0.053 C 
BRANCH  21  22
ATOM     22  C   UNL     1       9.384 -31.449  18.968  1.00  0.00     0.041 C 
ATOM     23  O   UNL     1      10.009 -31.141  17.919  1.00  0.00    -0.550 OA
ATOM     24  O   UNL     1      10.047 -31.443  20.190  1.00  0.00    -0.550 OA
ENDBRANCH  21  22
ENDBRANCH  20  21
ENDBRANCH  19  20
ENDBRANCH  18  19
ENDBRANCH  17  18
ENDBRANCH  16  17
ENDBRANCH  15  16
ENDBRANCH  14  15
ENDBRANCH  13  14
ENDBRANCH   1  13
TORSDOF 20
ENDMDL
MODEL 5
REMARK VINA RESULT:    -2.077      6.744     11.049
REMARK INTER + INTRA:          -5.222
REMARK INTER:                  -3.584
REMARK INTRA:                  -1.638
REMARK UNBOUND:                -0.717
REMARK SMILES CCCCCCCCCCCCCCCCCCCCCC(=O)[O-]
REMARK SMILES IDX 12 1 11 2 10 3 9 4 8 5 7 6 6 7 5 8 4 9 3 10 2 11 1 12 13 13
REMARK SMILES IDX 14 14 15 15 16 16 17 17 18 18 19 19 20 20 21 21 22 22 23 23
REMARK SMILES IDX 24 24
REMARK H PARENT
REMARK Flexibility Score: inf
ROOT
ATOM      1  C   UNL     1       6.488 -34.703  13.255  1.00  0.00     0.000 C 
ENDROOT
BRANCH   1   2
ATOM      2  C   UNL     1       5.929 -36.089  12.888  1.00  0.00     0.000 C 
BRANCH   2   3
ATOM      3  C   UNL     1       6.926 -37.241  13.130  1.00  0.00     0.000 C 
BRANCH   3   4
ATOM      4  C   UNL     1       7.371 -37.326  14.598  1.00  0.00    -0.000 C 
BRANCH   4   5
ATOM      5  C   UNL     1       6.166 -37.262  15.545  1.00  0.00    -0.000 C 
BRANCH   5   6
ATOM      6  C   UNL     1       6.570 -36.680  16.908  1.00  0.00    -0.000 C 
BRANCH   6   7
ATOM      7  C   UNL     1       7.130 -35.254  16.801  1.00  0.00    -0.000 C 
BRANCH   7   8
ATOM      8  C   UNL     1       6.043 -34.214  16.477  1.00  0.00    -0.000 C 
BRANCH   8   9
ATOM      9  C   UNL     1       6.538 -32.769  16.656  1.00  0.00    -0.000 C 
BRANCH   9  10
ATOM     10  C   UNL     1       7.395 -32.590  17.921  1.00  0.00    -0.000 C 
BRANCH  10  11
ATOM     11  C   UNL     1       8.827 -32.134  17.601  1.00  0.00    -0.003 C 
ATOM     12  C   UNL     1       9.597 -31.692  18.845  1.00  0.00     0.004 C 
ENDBRANCH  10  11
ENDBRANCH   9  10
ENDBRANCH   8   9
ENDBRANCH   7   8
ENDBRANCH   6   7
ENDBRANCH   5   6
ENDBRANCH   4   5
ENDBRANCH   3   4
ENDBRANCH   2   3
ENDBRANCH   1   2
BRANCH   1  13
ATOM     13  C   UNL     1       7.969 -34.537  12.875  1.00  0.00     0.000 C 
BRANCH  13  14
ATOM     14  C   UNL     1       8.693 -33.511  13.760  1.00  0.00     0.000 C 
BRANCH  14  15
ATOM     15  C   UNL     1       9.510 -32.497  12.938  1.00  0.00     0.000 C 
BRANCH  15  16
ATOM     16  C   UNL     1      11.023 -32.623  13.180  1.00  0.00     0.000 C 
BRANCH  16  17
ATOM     17  C   UNL     1      11.577 -31.716  14.295  1.00  0.00     0.000 C 
BRANCH  17  18
ATOM     18  C   UNL     1      12.820 -30.901  13.875  1.00  0.00     0.000 C 
BRANCH  18  19
ATOM     19  C   UNL     1      14.013 -31.127  14.819  1.00  0.00     0.000 C 
BRANCH  19  20
ATOM     20  C   UNL     1      15.336 -30.564  14.265  1.00  0.00     0.006 C 
BRANCH  20  21
ATOM     21  C   UNL     1      16.200 -31.606  13.534  1.00  0.00     0.053 C 
BRANCH  21  22
ATOM     22  C   UNL     1      17.413 -32.001  14.320  1.00  0.00     0.041 C 
ATOM     23  O   UNL     1      18.555 -31.611  13.959  1.00  0.00    -0.550 OA
ATOM     24  O   UNL     1      17.287 -32.815  15.439  1.00  0.00    -0.550 OA
ENDBRANCH  21  22
ENDBRANCH  20  21
ENDBRANCH  19  20
ENDBRANCH  18  19
ENDBRANCH  17  18
ENDBRANCH  16  17
ENDBRANCH  15  16
ENDBRANCH  14  15
ENDBRANCH  13  14
ENDBRANCH   1  13
TORSDOF 20
ENDMDL
MODEL 6
REMARK VINA RESULT:    -1.998      6.426     10.131
REMARK INTER + INTRA:          -5.052
REMARK INTER:                  -3.327
REMARK INTRA:                  -1.725
REMARK UNBOUND:                -0.717
REMARK SMILES CCCCCCCCCCCCCCCCCCCCCC(=O)[O-]
REMARK SMILES IDX 12 1 11 2 10 3 9 4 8 5 7 6 6 7 5 8 4 9 3 10 2 11 1 12 13 13
REMARK SMILES IDX 14 14 15 15 16 16 17 17 18 18 19 19 20 20 21 21 22 22 23 23
REMARK SMILES IDX 24 24
REMARK H PARENT
REMARK Flexibility Score: inf
ROOT
ATOM      1  C   UNL     1       9.613 -34.975  14.109  1.00  0.00     0.000 C 
ENDROOT
BRANCH   1   2
ATOM      2  C   UNL     1       8.654 -36.174  14.003  1.00  0.00     0.000 C 
BRANCH   2   3
ATOM      3  C   UNL     1       7.582 -36.012  12.905  1.00  0.00     0.000 C 
BRANCH   3   4
ATOM      4  C   UNL     1       6.365 -35.211  13.393  1.00  0.00    -0.000 C 
BRANCH   4   5
ATOM      5  C   UNL     1       6.801 -33.986  14.206  1.00  0.00    -0.000 C 
BRANCH   5   6
ATOM      6  C   UNL     1       5.938 -33.829  15.468  1.00  0.00    -0.000 C 
BRANCH   6   7
ATOM      7  C   UNL     1       6.273 -34.870  16.547  1.00  0.00    -0.000 C 
BRANCH   7   8
ATOM      8  C   UNL     1       7.699 -34.709  17.102  1.00  0.00    -0.000 C 
BRANCH   8   9
ATOM      9  C   UNL     1       7.957 -33.302  17.665  1.00  0.00    -0.000 C 
BRANCH   9  10
ATOM     10  C   UNL     1       8.915 -32.480  16.784  1.00  0.00    -0.000 C 
BRANCH  10  11
ATOM     11  C   UNL     1       9.810 -31.542  17.607  1.00  0.00    -0.003 C 
ATOM     12  C   UNL     1       9.137 -31.059  18.892  1.00  0.00     0.004 C 
ENDBRANCH  10  11
ENDBRANCH   9  10
ENDBRANCH   8   9
ENDBRANCH   7   8
ENDBRANCH   6   7
ENDBRANCH   5   6
ENDBRANCH   4   5
ENDBRANCH   3   4
ENDBRANCH   2   3
ENDBRANCH   1   2
BRANCH   1  13
ATOM     13  C   UNL     1      10.785 -35.059  13.117  1.00  0.00     0.000 C 
BRANCH  13  14
ATOM     14  C   UNL     1      11.454 -33.697  12.878  1.00  0.00     0.000 C 
BRANCH  14  15
ATOM     15  C   UNL     1      10.567 -32.520  13.323  1.00  0.00     0.000 C 
BRANCH  15  16
ATOM     16  C   UNL     1      11.362 -31.214  13.496  1.00  0.00     0.000 C 
BRANCH  16  17
ATOM     17  C   UNL     1      12.311 -31.192  14.709  1.00  0.00     0.000 C 
BRANCH  17  18
ATOM     18  C   UNL     1      13.740 -30.714  14.372  1.00  0.00     0.000 C 
BRANCH  18  19
ATOM     19  C   UNL     1      14.740 -31.880  14.278  1.00  0.00     0.000 C 
BRANCH  19  20
ATOM     20  C   UNL     1      16.092 -31.468  13.667  1.00  0.00     0.006 C 
BRANCH  20  21
ATOM     21  C   UNL     1      17.290 -31.664  14.613  1.00  0.00     0.053 C 
BRANCH  21  22
ATOM     22  C   UNL     1      18.602 -31.639  13.891  1.00  0.00     0.041 C 
ATOM     23  O   UNL     1      18.789 -32.384  12.892  1.00  0.00    -0.550 OA
ATOM     24  O   UNL     1      19.627 -30.810  14.331  1.00  0.00    -0.550 OA
ENDBRANCH  21  22
ENDBRANCH  20  21
ENDBRANCH  19  20
ENDBRANCH  18  19
ENDBRANCH  17  18
ENDBRANCH  16  17
ENDBRANCH  15  16
ENDBRANCH  14  15
ENDBRANCH  13  14
ENDBRANCH   1  13
TORSDOF 20
ENDMDL
MODEL 7
REMARK VINA RESULT:    -1.777      8.299     14.141
REMARK INTER + INTRA:          -4.572
REMARK INTER:                  -2.525
REMARK INTRA:                  -2.047
REMARK UNBOUND:                -0.717
REMARK SMILES CCCCCCCCCCCCCCCCCCCCCC(=O)[O-]
REMARK SMILES IDX 12 1 11 2 10 3 9 4 8 5 7 6 6 7 5 8 4 9 3 10 2 11 1 12 13 13
REMARK SMILES IDX 14 14 15 15 16 16 17 17 18 18 19 19 20 20 21 21 22 22 23 23
REMARK SMILES IDX 24 24
REMARK H PARENT
REMARK Flexibility Score: inf
ROOT
ATOM      1  C   UNL     1       8.686 -33.429  15.826  1.00  0.00     0.000 C 
ENDROOT
BRANCH   1   2
ATOM      2  C   UNL     1       7.855 -32.412  16.627  1.00  0.00     0.000 C 
BRANCH   2   3
ATOM      3  C   UNL     1       8.505 -31.999  17.963  1.00  0.00     0.000 C 
BRANCH   3   4
ATOM      4  C   UNL     1      10.027 -31.824  17.840  1.00  0.00    -0.000 C 
BRANCH   4   5
ATOM      5  C   UNL     1      10.376 -30.497  17.154  1.00  0.00    -0.000 C 
BRANCH   5   6
ATOM      6  C   UNL     1      11.667 -30.627  16.333  1.00  0.00    -0.000 C 
BRANCH   6   7
ATOM      7  C   UNL     1      11.454 -31.378  15.010  1.00  0.00    -0.000 C 
BRANCH   7   8
ATOM      8  C   UNL     1      12.708 -31.372  14.117  1.00  0.00    -0.000 C 
BRANCH   8   9
ATOM      9  C   UNL     1      13.878 -30.601  14.749  1.00  0.00    -0.000 C 
BRANCH   9  10
ATOM     10  C   UNL     1      15.222 -30.900  14.063  1.00  0.00    -0.000 C 
BRANCH  10  11
ATOM     11  C   UNL     1      16.161 -31.732  14.948  1.00  0.00    -0.003 C 
ATOM     12  C   UNL     1      17.548 -31.913  14.331  1.00  0.00     0.004 C 
ENDBRANCH  10  11
ENDBRANCH   9  10
ENDBRANCH   8   9
ENDBRANCH   7   8
ENDBRANCH   6   7
ENDBRANCH   5   6
ENDBRANCH   4   5
ENDBRANCH   3   4
ENDBRANCH   2   3
ENDBRANCH   1   2
BRANCH   1  13
ATOM     13  C   UNL     1       8.736 -33.108  14.322  1.00  0.00     0.000 C 
BRANCH  13  14
ATOM     14  C   UNL     1       9.383 -34.233  13.500  1.00  0.00     0.000 C 
BRANCH  14  15
ATOM     15  C   UNL     1       9.105 -35.628  14.089  1.00  0.00     0.000 C 
BRANCH  15  16
ATOM     16  C   UNL     1       8.510 -36.598  13.054  1.00  0.00     0.000 C 
BRANCH  16  17
ATOM     17  C   UNL     1       6.984 -36.496  12.875  1.00  0.00     0.000 C 
BRANCH  17  18
ATOM     18  C   UNL     1       6.208 -36.379  14.206  1.00  0.00     0.000 C 
BRANCH  18  19
ATOM     19  C   UNL     1       6.228 -37.689  15.012  1.00  0.00     0.000 C 
BRANCH  19  20
ATOM     20  C   UNL     1       6.221 -37.461  16.535  1.00  0.00     0.006 C 
BRANCH  20  21
ATOM     21  C   UNL     1       6.624 -36.036  16.955  1.00  0.00     0.053 C 
BRANCH  21  22
ATOM     22  C   UNL     1       7.315 -36.002  18.283  1.00  0.00     0.041 C 
ATOM     23  O   UNL     1       7.518 -34.902  18.863  1.00  0.00    -0.550 OA
ATOM     24  O   UNL     1       7.757 -37.181  18.872  1.00  0.00    -0.550 OA
ENDBRANCH  21  22
ENDBRANCH  20  21
ENDBRANCH  19  20
ENDBRANCH  18  19
ENDBRANCH  17  18
ENDBRANCH  16  17
ENDBRANCH  15  16
ENDBRANCH  14  15
ENDBRANCH  13  14
ENDBRANCH   1  13
TORSDOF 20
ENDMDL
MODEL 8
REMARK VINA RESULT:    -1.770      7.384     13.344
REMARK INTER + INTRA:          -4.556
REMARK INTER:                  -2.845
REMARK INTRA:                  -1.710
REMARK UNBOUND:                -0.717
REMARK SMILES CCCCCCCCCCCCCCCCCCCCCC(=O)[O-]
REMARK SMILES IDX 12 1 11 2 10 3 9 4 8 5 7 6 6 7 5 8 4 9 3 10 2 11 1 12 13 13
REMARK SMILES IDX 14 14 15 15 16 16 17 17 18 18 19 19 20 20 21 21 22 22 23 23
REMARK SMILES IDX 24 24
REMARK H PARENT
REMARK Flexibility Score: inf
ROOT
ATOM      1  C   UNL     1       8.469 -32.449  17.327  1.00  0.00     0.000 C 
ENDROOT
BRANCH   1   2
ATOM      2  C   UNL     1       9.393 -31.745  18.337  1.00  0.00     0.000 C 
BRANCH   2   3
ATOM      3  C   UNL     1      10.434 -30.817  17.677  1.00  0.00     0.000 C 
BRANCH   3   4
ATOM      4  C   UNL     1      10.666 -31.161  16.198  1.00  0.00    -0.000 C 
BRANCH   4   5
ATOM      5  C   UNL     1      12.029 -30.648  15.719  1.00  0.00    -0.000 C 
BRANCH   5   6
ATOM      6  C   UNL     1      12.478 -31.386  14.449  1.00  0.00    -0.000 C 
BRANCH   6   7
ATOM      7  C   UNL     1      13.542 -30.610  13.657  1.00  0.00    -0.000 C 
BRANCH   7   8
ATOM      8  C   UNL     1      14.870 -30.478  14.422  1.00  0.00    -0.000 C 
BRANCH   8   9
ATOM      9  C   UNL     1      15.967 -31.397  13.862  1.00  0.00    -0.000 C 
BRANCH   9  10
ATOM     10  C   UNL     1      16.937 -31.891  14.949  1.00  0.00    -0.000 C 
BRANCH  10  11
ATOM     11  C   UNL     1      18.343 -32.172  14.399  1.00  0.00    -0.003 C 
ATOM     12  C   UNL     1      18.493 -31.777  12.930  1.00  0.00     0.004 C 
ENDBRANCH  10  11
ENDBRANCH   9  10
ENDBRANCH   8   9
ENDBRANCH   7   8
ENDBRANCH   6   7
ENDBRANCH   5   6
ENDBRANCH   4   5
ENDBRANCH   3   4
ENDBRANCH   2   3
ENDBRANCH   1   2
BRANCH   1  13
ATOM     13  C   UNL     1       7.003 -32.498  17.792  1.00  0.00     0.000 C 
BRANCH  13  14
ATOM     14  C   UNL     1       6.522 -33.930  18.075  1.00  0.00     0.000 C 
BRANCH  14  15
ATOM     15  C   UNL     1       7.614 -34.981  17.807  1.00  0.00     0.000 C 
BRANCH  15  16
ATOM     16  C   UNL     1       7.373 -35.764  16.506  1.00  0.00     0.000 C 
BRANCH  16  17
ATOM     17  C   UNL     1       5.940 -35.668  15.950  1.00  0.00     0.000 C 
BRANCH  17  18
ATOM     18  C   UNL     1       5.878 -35.511  14.415  1.00  0.00     0.000 C 
BRANCH  18  19
ATOM     19  C   UNL     1       6.148 -34.065  13.964  1.00  0.00     0.000 C 
BRANCH  19  20
ATOM     20  C   UNL     1       7.236 -33.965  12.878  1.00  0.00     0.006 C 
BRANCH  20  21
ATOM     21  C   UNL     1       8.546 -34.687  13.239  1.00  0.00     0.053 C 
BRANCH  21  22
ATOM     22  C   UNL     1       9.750 -33.810  13.074  1.00  0.00     0.041 C 
ATOM     23  O   UNL     1      10.883 -34.322  12.875  1.00  0.00    -0.550 OA
ATOM     24  O   UNL     1       9.625 -32.428  13.161  1.00  0.00    -0.550 OA
ENDBRANCH  21  22
ENDBRANCH  20  21
ENDBRANCH  19  20
ENDBRANCH  18  19
ENDBRANCH  17  18
ENDBRANCH  16  17
ENDBRANCH  15  16
ENDBRANCH  14  15
ENDBRANCH  13  14
ENDBRANCH   1  13
TORSDOF 20
ENDMDL
MODEL 9
REMARK VINA RESULT:    -1.726      8.436     14.246
REMARK INTER + INTRA:          -4.462
REMARK INTER:                  -3.030
REMARK INTRA:                  -1.432
REMARK UNBOUND:                -0.717
REMARK SMILES CCCCCCCCCCCCCCCCCCCCCC(=O)[O-]
REMARK SMILES IDX 12 1 11 2 10 3 9 4 8 5 7 6 6 7 5 8 4 9 3 10 2 11 1 12 13 13
REMARK SMILES IDX 14 14 15 15 16 16 17 17 18 18 19 19 20 20 21 21 22 22 23 23
REMARK SMILES IDX 24 24
REMARK H PARENT
REMARK Flexibility Score: inf
ROOT
ATOM      1  C   UNL     1       9.214 -31.954  18.494  1.00  0.00     0.000 C 
ENDROOT
BRANCH   1   2
ATOM      2  C   UNL     1       9.643 -31.000  17.366  1.00  0.00     0.000 C 
BRANCH   2   3
ATOM      3  C   UNL     1      10.434 -31.694  16.238  1.00  0.00     0.000 C 
BRANCH   3   4
ATOM      4  C   UNL     1       9.518 -32.459  15.270  1.00  0.00    -0.000 C 
BRANCH   4   5
ATOM      5  C   UNL     1      10.281 -32.889  14.011  1.00  0.00    -0.000 C 
BRANCH   5   6
ATOM      6  C   UNL     1      11.241 -31.783  13.548  1.00  0.00    -0.000 C 
BRANCH   6   7
ATOM      7  C   UNL     1      12.714 -32.131  13.811  1.00  0.00    -0.000 C 
BRANCH   7   8
ATOM      8  C   UNL     1      13.469 -31.003  14.535  1.00  0.00    -0.000 C 
BRANCH   8   9
ATOM      9  C   UNL     1      14.891 -30.797  13.988  1.00  0.00    -0.000 C 
BRANCH   9  10
ATOM     10  C   UNL     1      15.977 -31.114  15.030  1.00  0.00    -0.000 C 
BRANCH  10  11
ATOM     11  C   UNL     1      16.904 -32.254  14.584  1.00  0.00    -0.003 C 
ATOM     12  C   UNL     1      17.754 -31.884  13.368  1.00  0.00     0.004 C 
ENDBRANCH  10  11
ENDBRANCH   9  10
ENDBRANCH   8   9
ENDBRANCH   7   8
ENDBRANCH   6   7
ENDBRANCH   5   6
ENDBRANCH   4   5
ENDBRANCH   3   4
ENDBRANCH   2   3
ENDBRANCH   1   2
BRANCH   1  13
ATOM     13  C   UNL     1       8.117 -32.940  18.058  1.00  0.00     0.000 C 
BRANCH  13  14
ATOM     14  C   UNL     1       6.710 -32.326  18.127  1.00  0.00     0.000 C 
BRANCH  14  15
ATOM     15  C   UNL     1       6.071 -32.160  16.737  1.00  0.00     0.000 C 
BRANCH  15  16
ATOM     16  C   UNL     1       6.112 -33.455  15.910  1.00  0.00     0.000 C 
BRANCH  16  17
ATOM     17  C   UNL     1       6.244 -33.247  14.389  1.00  0.00     0.000 C 
BRANCH  17  18
ATOM     18  C   UNL     1       6.132 -34.552  13.571  1.00  0.00     0.000 C 
BRANCH  18  19
ATOM     19  C   UNL     1       7.496 -35.235  13.370  1.00  0.00     0.000 C 
BRANCH  19  20
ATOM     20  C   UNL     1       7.785 -36.327  14.416  1.00  0.00     0.006 C 
BRANCH  20  21
ATOM     21  C   UNL     1       6.529 -37.069  14.907  1.00  0.00     0.053 C 
BRANCH  21  22
ATOM     22  C   UNL     1       6.449 -37.135  16.401  1.00  0.00     0.041 C 
ATOM     23  O   UNL     1       5.907 -38.125  16.962  1.00  0.00    -0.550 OA
ATOM     24  O   UNL     1       6.950 -36.096  17.176  1.00  0.00    -0.550 OA
ENDBRANCH  21  22
ENDBRANCH  20  21
ENDBRANCH  19  20
ENDBRANCH  18  19
ENDBRANCH  17  18
ENDBRANCH  16  17
ENDBRANCH  15  16
ENDBRANCH  14  15
ENDBRANCH  13  14
ENDBRANCH   1  13
TORSDOF 20
ENDMDL
