MODEL 1
REMARK VINA RESULT:    -7.462      0.000      0.000
REMARK INTER + INTRA:          -7.898
REMARK INTER:                  -8.116
REMARK INTRA:                   0.219
REMARK UNBOUND:                 0.219
REMARK SMILES C[C@H]1[C@H]2C3=CC[C@@H]4[C@]5(C)CC[C@@H](O)C(C)(C)[C@H]5CC[C@@]4(C)[C@]3(C)CC[C@]2(C(=O)[O-])CC[C@@H]1C
REMARK SMILES IDX 26 1 30 2 25 3 3 4 31 5 24 6 4 7 2 8 32 9 22 10 5 11 1 12
REMARK SMILES IDX 33 13 23 14 20 15 6 16 7 17 19 18 21 19 8 20 18 21 17 22
REMARK SMILES IDX 10 23 9 24 14 25 11 26 12 27 15 28 16 29 27 30 28 31 29 32
REMARK SMILES IDX 13 33
REMARK H PARENT 13 34
REMARK Flexibility Score: inf
ROOT
ATOM      1  C   UNL     1      37.791 -38.644  32.711  1.00  0.00     0.017 C 
ATOM      2  C   UNL     1      39.109 -38.831  33.550  1.00  0.00     0.014 C 
ATOM      3  C   UNL     1      36.786 -39.781  33.104  1.00  0.00     0.014 C 
ATOM      4  C   UNL     1      37.256 -37.196  33.025  1.00  0.00     0.030 C 
ATOM      5  C   UNL     1      39.953 -37.548  33.747  1.00  0.00     0.004 C 
ATOM      6  C   UNL     1      35.485 -39.293  33.750  1.00  0.00     0.013 C 
ATOM      7  C   UNL     1      35.743 -36.967  32.811  1.00  0.00    -0.063 C 
ATOM      8  C   UNL     1      38.247 -36.091  32.480  1.00  0.00    -0.003 C 
ATOM      9  C   UNL     1      39.749 -36.516  32.625  1.00  0.00    -0.011 C 
ATOM     10  C   UNL     1      34.758 -38.139  32.981  1.00  0.00    -0.006 C 
ATOM     11  C   UNL     1      35.266 -35.696  32.733  1.00  0.00    -0.027 C 
ATOM     12  C   UNL     1      37.982 -35.637  31.020  1.00  0.00     0.008 C 
ATOM     13  C   UNL     1      40.653 -35.296  32.860  1.00  0.00     0.008 C 
ATOM     14  C   UNL     1      34.367 -38.613  31.535  1.00  0.00     0.017 C 
ATOM     15  C   UNL     1      33.456 -37.666  33.808  1.00  0.00    -0.020 C 
ATOM     16  C   UNL     1      33.820 -35.283  32.848  1.00  0.00     0.032 C 
ATOM     17  C   UNL     1      32.812 -36.446  33.042  1.00  0.00     0.006 C 
ATOM     18  C   UNL     1      32.419 -38.860  33.952  1.00  0.00     0.008 C 
ATOM     19  C   UNL     1      33.867 -37.200  35.246  1.00  0.00     0.012 C 
ATOM     20  C   UNL     1      31.329 -35.987  33.463  1.00  0.00    -0.025 C 
ATOM     21  C   UNL     1      30.966 -38.517  33.577  1.00  0.00     0.005 C 
ATOM     22  C   UNL     1      30.588 -37.162  34.196  1.00  0.00     0.003 C 
ATOM     23  C   UNL     1      31.281 -34.745  34.421  1.00  0.00     0.010 C 
ATOM     24  C   UNL     1      30.627 -35.586  32.126  1.00  0.00     0.012 C 
ATOM     25  C   UNL     1      29.057 -36.928  34.521  1.00  0.00    -0.006 C 
ATOM     26  C   UNL     1      30.079 -34.697  35.402  1.00  0.00     0.033 C 
ATOM     27  C   UNL     1      28.796 -35.422  34.934  1.00  0.00     0.120 C 
ATOM     28  C   UNL     1      28.127 -37.368  33.358  1.00  0.00     0.014 C 
ATOM     29  C   UNL     1      28.669 -37.816  35.742  1.00  0.00     0.014 C 
ENDROOT
BRANCH   1  30
ATOM     30  C   UNL     1      38.082 -38.804  31.219  1.00  0.00     0.048 C 
ATOM     31  O   UNL     1      37.149 -38.716  30.378  1.00  0.00    -0.550 OA
ATOM     32  O   UNL     1      39.356 -39.121  30.761  1.00  0.00    -0.550 OA
ENDBRANCH   1  30
BRANCH  27  33
ATOM     33  O   UNL     1      28.164 -34.689  33.914  1.00  0.00    -0.393 OA
ATOM     34  H   UNL     1      28.081 -35.286  33.126  1.00  0.00     0.210 HD
ENDBRANCH  27  33
TORSDOF 2
ENDMDL
MODEL 2
REMARK VINA RESULT:    -7.370      2.459      4.006
REMARK INTER + INTRA:          -7.798
REMARK INTER:                  -8.019
REMARK INTRA:                   0.222
REMARK UNBOUND:                 0.219
REMARK SMILES C[C@H]1[C@H]2C3=CC[C@@H]4[C@]5(C)CC[C@@H](O)C(C)(C)[C@H]5CC[C@@]4(C)[C@]3(C)CC[C@]2(C(=O)[O-])CC[C@@H]1C
REMARK SMILES IDX 26 1 30 2 25 3 3 4 31 5 24 6 4 7 2 8 32 9 22 10 5 11 1 12
REMARK SMILES IDX 33 13 23 14 20 15 6 16 7 17 19 18 21 19 8 20 18 21 17 22
REMARK SMILES IDX 10 23 9 24 14 25 11 26 12 27 15 28 16 29 27 30 28 31 29 32
REMARK SMILES IDX 13 33
REMARK H PARENT 13 34
REMARK Flexibility Score: inf
ROOT
ATOM      1  C   UNL     1      34.102 -37.861  32.113  1.00  0.00     0.017 C 
ATOM      2  C   UNL     1      35.066 -39.100  32.226  1.00  0.00     0.014 C 
ATOM      3  C   UNL     1      32.647 -38.331  32.458  1.00  0.00     0.014 C 
ATOM      4  C   UNL     1      34.658 -36.763  33.095  1.00  0.00     0.030 C 
ATOM      5  C   UNL     1      36.551 -38.757  32.497  1.00  0.00     0.004 C 
ATOM      6  C   UNL     1      32.037 -37.671  33.699  1.00  0.00     0.013 C 
ATOM      7  C   UNL     1      33.635 -35.723  33.605  1.00  0.00    -0.063 C 
ATOM      8  C   UNL     1      36.067 -36.229  32.615  1.00  0.00    -0.003 C 
ATOM      9  C   UNL     1      36.949 -37.361  31.985  1.00  0.00    -0.011 C 
ATOM     10  C   UNL     1      32.150 -36.110  33.741  1.00  0.00    -0.006 C 
ATOM     11  C   UNL     1      34.082 -34.570  34.170  1.00  0.00    -0.027 C 
ATOM     12  C   UNL     1      36.012 -35.021  31.643  1.00  0.00     0.008 C 
ATOM     13  C   UNL     1      38.443 -37.111  32.241  1.00  0.00     0.008 C 
ATOM     14  C   UNL     1      31.405 -35.479  32.510  1.00  0.00     0.017 C 
ATOM     15  C   UNL     1      31.548 -35.554  35.130  1.00  0.00    -0.020 C 
ATOM     16  C   UNL     1      33.262 -33.610  34.994  1.00  0.00     0.032 C 
ATOM     17  C   UNL     1      31.768 -33.992  35.164  1.00  0.00     0.006 C 
ATOM     18  C   UNL     1      30.007 -35.916  35.259  1.00  0.00     0.008 C 
ATOM     19  C   UNL     1      32.303 -36.196  36.344  1.00  0.00     0.012 C 
ATOM     20  C   UNL     1      30.978 -33.141  36.278  1.00  0.00    -0.025 C 
ATOM     21  C   UNL     1      29.087 -34.744  35.647  1.00  0.00     0.005 C 
ATOM     22  C   UNL     1      29.733 -33.948  36.792  1.00  0.00     0.003 C 
ATOM     23  C   UNL     1      31.836 -32.768  37.537  1.00  0.00     0.010 C 
ATOM     24  C   UNL     1      30.571 -31.811  35.567  1.00  0.00     0.012 C 
ATOM     25  C   UNL     1      28.753 -33.177  37.767  1.00  0.00    -0.006 C 
ATOM     26  C   UNL     1      31.052 -32.634  38.871  1.00  0.00     0.033 C 
ATOM     27  C   UNL     1      29.565 -32.231  38.741  1.00  0.00     0.120 C 
ATOM     28  C   UNL     1      27.649 -32.396  37.005  1.00  0.00     0.014 C 
ATOM     29  C   UNL     1      28.010 -34.223  38.650  1.00  0.00     0.014 C 
ENDROOT
BRANCH   1  30
ATOM     30  C   UNL     1      34.071 -37.340  30.677  1.00  0.00     0.048 C 
ATOM     31  O   UNL     1      33.373 -36.334  30.381  1.00  0.00    -0.550 OA
ATOM     32  O   UNL     1      34.746 -37.999  29.654  1.00  0.00    -0.550 OA
ENDBRANCH   1  30
BRANCH  27  33
ATOM     33  O   UNL     1      29.455 -30.875  38.387  1.00  0.00    -0.393 OA
ATOM     34  H   UNL     1      30.215 -30.394  38.807  1.00  0.00     0.210 HD
ENDBRANCH  27  33
TORSDOF 2
ENDMDL
MODEL 3
REMARK VINA RESULT:    -7.334      1.771      8.319
REMARK INTER + INTRA:          -7.759
REMARK INTER:                  -7.984
REMARK INTRA:                   0.225
REMARK UNBOUND:                 0.219
REMARK SMILES C[C@H]1[C@H]2C3=CC[C@@H]4[C@]5(C)CC[C@@H](O)C(C)(C)[C@H]5CC[C@@]4(C)[C@]3(C)CC[C@]2(C(=O)[O-])CC[C@@H]1C
REMARK SMILES IDX 26 1 30 2 25 3 3 4 31 5 24 6 4 7 2 8 32 9 22 10 5 11 1 12
REMARK SMILES IDX 33 13 23 14 20 15 6 16 7 17 19 18 21 19 8 20 18 21 17 22
REMARK SMILES IDX 10 23 9 24 14 25 11 26 12 27 15 28 16 29 27 30 28 31 29 32
REMARK SMILES IDX 13 33
REMARK H PARENT 13 34
REMARK Flexibility Score: inf
ROOT
ATOM      1  C   UNL     1      29.135 -38.399  34.812  1.00  0.00     0.017 C 
ATOM      2  C   UNL     1      27.914 -39.303  34.400  1.00  0.00     0.014 C 
ATOM      3  C   UNL     1      30.325 -39.331  35.226  1.00  0.00     0.014 C 
ATOM      4  C   UNL     1      29.457 -37.481  33.574  1.00  0.00     0.030 C 
ATOM      5  C   UNL     1      26.895 -38.639  33.442  1.00  0.00     0.004 C 
ATOM      6  C   UNL     1      31.571 -39.212  34.342  1.00  0.00     0.013 C 
ATOM      7  C   UNL     1      30.900 -36.938  33.485  1.00  0.00    -0.063 C 
ATOM      8  C   UNL     1      28.275 -36.468  33.293  1.00  0.00    -0.003 C 
ATOM      9  C   UNL     1      26.868 -37.105  33.562  1.00  0.00    -0.011 C 
ATOM     10  C   UNL     1      32.063 -37.747  34.088  1.00  0.00    -0.006 C 
ATOM     11  C   UNL     1      31.168 -35.892  32.659  1.00  0.00    -0.027 C 
ATOM     12  C   UNL     1      28.379 -35.116  34.047  1.00  0.00     0.008 C 
ATOM     13  C   UNL     1      25.802 -36.521  32.624  1.00  0.00     0.008 C 
ATOM     14  C   UNL     1      32.436 -37.057  35.449  1.00  0.00     0.017 C 
ATOM     15  C   UNL     1      33.324 -37.760  33.081  1.00  0.00    -0.020 C 
ATOM     16  C   UNL     1      32.537 -35.446  32.207  1.00  0.00     0.032 C 
ATOM     17  C   UNL     1      33.723 -36.263  32.785  1.00  0.00     0.006 C 
ATOM     18  C   UNL     1      34.540 -38.561  33.715  1.00  0.00     0.008 C 
ATOM     19  C   UNL     1      32.932 -38.454  31.732  1.00  0.00     0.012 C 
ATOM     20  C   UNL     1      35.140 -35.985  32.075  1.00  0.00    -0.025 C 
ATOM     21  C   UNL     1      35.897 -37.836  33.671  1.00  0.00     0.005 C 
ATOM     22  C   UNL     1      36.097 -37.213  32.280  1.00  0.00     0.003 C 
ATOM     23  C   UNL     1      35.051 -35.723  30.531  1.00  0.00     0.010 C 
ATOM     24  C   UNL     1      35.689 -34.686  32.748  1.00  0.00     0.012 C 
ATOM     25  C   UNL     1      37.590 -37.026  31.790  1.00  0.00    -0.006 C 
ATOM     26  C   UNL     1      36.288 -36.163  29.701  1.00  0.00     0.033 C 
ATOM     27  C   UNL     1      37.638 -36.174  30.457  1.00  0.00     0.120 C 
ATOM     28  C   UNL     1      38.505 -36.418  32.886  1.00  0.00     0.014 C 
ATOM     29  C   UNL     1      38.183 -38.430  31.463  1.00  0.00     0.014 C 
ENDROOT
BRANCH   1  30
ATOM     30  C   UNL     1      28.783 -37.557  36.037  1.00  0.00     0.048 C 
ATOM     31  O   UNL     1      29.668 -36.863  36.605  1.00  0.00    -0.550 OA
ATOM     32  O   UNL     1      27.511 -37.590  36.597  1.00  0.00    -0.550 OA
ENDBRANCH   1  30
BRANCH  27  33
ATOM     33  O   UNL     1      38.086 -34.860  30.676  1.00  0.00    -0.393 OA
ATOM     34  H   UNL     1      38.649 -34.604  29.900  1.00  0.00     0.210 HD
ENDBRANCH  27  33
TORSDOF 2
ENDMDL
MODEL 4
REMARK VINA RESULT:    -7.257      2.016      4.293
REMARK INTER + INTRA:          -7.675
REMARK INTER:                  -7.892
REMARK INTRA:                   0.217
REMARK UNBOUND:                 0.219
REMARK SMILES C[C@H]1[C@H]2C3=CC[C@@H]4[C@]5(C)CC[C@@H](O)C(C)(C)[C@H]5CC[C@@]4(C)[C@]3(C)CC[C@]2(C(=O)[O-])CC[C@@H]1C
REMARK SMILES IDX 26 1 30 2 25 3 3 4 31 5 24 6 4 7 2 8 32 9 22 10 5 11 1 12
REMARK SMILES IDX 33 13 23 14 20 15 6 16 7 17 19 18 21 19 8 20 18 21 17 22
REMARK SMILES IDX 10 23 9 24 14 25 11 26 12 27 15 28 16 29 27 30 28 31 29 32
REMARK SMILES IDX 13 33
REMARK H PARENT 13 34
REMARK Flexibility Score: inf
ROOT
ATOM      1  C   UNL     1      38.595 -40.173  31.617  1.00  0.00     0.017 C 
ATOM      2  C   UNL     1      39.157 -40.955  30.371  1.00  0.00     0.014 C 
ATOM      3  C   UNL     1      38.495 -38.654  31.246  1.00  0.00     0.014 C 
ATOM      4  C   UNL     1      37.207 -40.826  31.973  1.00  0.00     0.030 C 
ATOM      5  C   UNL     1      38.792 -42.458  30.318  1.00  0.00     0.004 C 
ATOM      6  C   UNL     1      37.074 -38.081  31.262  1.00  0.00     0.013 C 
ATOM      7  C   UNL     1      36.210 -39.930  32.742  1.00  0.00    -0.063 C 
ATOM      8  C   UNL     1      37.390 -42.315  32.474  1.00  0.00    -0.003 C 
ATOM      9  C   UNL     1      38.533 -43.064  31.708  1.00  0.00    -0.011 C 
ATOM     10  C   UNL     1      36.247 -38.402  32.552  1.00  0.00    -0.006 C 
ATOM     11  C   UNL     1      35.150 -40.503  33.372  1.00  0.00    -0.027 C 
ATOM     12  C   UNL     1      37.609 -42.469  34.002  1.00  0.00     0.008 C 
ATOM     13  C   UNL     1      38.229 -44.565  31.581  1.00  0.00     0.008 C 
ATOM     14  C   UNL     1      36.962 -37.808  33.818  1.00  0.00     0.017 C 
ATOM     15  C   UNL     1      34.751 -37.816  32.403  1.00  0.00    -0.020 C 
ATOM     16  C   UNL     1      33.928 -39.782  33.885  1.00  0.00     0.032 C 
ATOM     17  C   UNL     1      33.933 -38.244  33.683  1.00  0.00     0.006 C 
ATOM     18  C   UNL     1      34.780 -36.236  32.246  1.00  0.00     0.008 C 
ATOM     19  C   UNL     1      34.056 -38.420  31.135  1.00  0.00     0.012 C 
ATOM     20  C   UNL     1      32.519 -37.525  33.951  1.00  0.00    -0.025 C 
ATOM     21  C   UNL     1      33.823 -35.467  33.174  1.00  0.00     0.005 C 
ATOM     22  C   UNL     1      32.452 -36.160  33.178  1.00  0.00     0.003 C 
ATOM     23  C   UNL     1      31.270 -38.366  33.508  1.00  0.00     0.010 C 
ATOM     24  C   UNL     1      32.441 -37.335  35.500  1.00  0.00     0.012 C 
ATOM     25  C   UNL     1      31.192 -35.249  33.476  1.00  0.00    -0.006 C 
ATOM     26  C   UNL     1      30.032 -37.546  33.054  1.00  0.00     0.033 C 
ATOM     27  C   UNL     1      29.895 -36.135  33.672  1.00  0.00     0.120 C 
ATOM     28  C   UNL     1      31.418 -34.297  34.682  1.00  0.00     0.014 C 
ATOM     29  C   UNL     1      30.943 -34.330  32.242  1.00  0.00     0.014 C 
ENDROOT
BRANCH   1  30
ATOM     30  C   UNL     1      39.564 -40.280  32.793  1.00  0.00     0.048 C 
ATOM     31  O   UNL     1      39.317 -39.685  33.876  1.00  0.00    -0.550 OA
ATOM     32  O   UNL     1      40.768 -40.968  32.679  1.00  0.00    -0.550 OA
ENDBRANCH   1  30
BRANCH  27  33
ATOM     33  O   UNL     1      29.507 -36.226  35.019  1.00  0.00    -0.393 OA
ATOM     34  H   UNL     1      30.249 -35.862  35.569  1.00  0.00     0.210 HD
ENDBRANCH  27  33
TORSDOF 2
ENDMDL
MODEL 5
REMARK VINA RESULT:    -7.214      1.474      8.627
REMARK INTER + INTRA:          -7.628
REMARK INTER:                  -7.841
REMARK INTRA:                   0.213
REMARK UNBOUND:                 0.219
REMARK SMILES C[C@H]1[C@H]2C3=CC[C@@H]4[C@]5(C)CC[C@@H](O)C(C)(C)[C@H]5CC[C@@]4(C)[C@]3(C)CC[C@]2(C(=O)[O-])CC[C@@H]1C
REMARK SMILES IDX 26 1 30 2 25 3 3 4 31 5 24 6 4 7 2 8 32 9 22 10 5 11 1 12
REMARK SMILES IDX 33 13 23 14 20 15 6 16 7 17 19 18 21 19 8 20 18 21 17 22
REMARK SMILES IDX 10 23 9 24 14 25 11 26 12 27 15 28 16 29 27 30 28 31 29 32
REMARK SMILES IDX 13 33
REMARK H PARENT 13 34
REMARK Flexibility Score: inf
ROOT
ATOM      1  C   UNL     1      28.568 -37.068  35.749  1.00  0.00     0.017 C 
ATOM      2  C   UNL     1      27.346 -37.970  36.162  1.00  0.00     0.014 C 
ATOM      3  C   UNL     1      29.752 -37.355  36.735  1.00  0.00     0.014 C 
ATOM      4  C   UNL     1      28.900 -37.416  34.250  1.00  0.00     0.030 C 
ATOM      5  C   UNL     1      26.335 -38.271  35.029  1.00  0.00     0.004 C 
ATOM      6  C   UNL     1      31.004 -37.949  36.080  1.00  0.00     0.013 C 
ATOM      7  C   UNL     1      30.347 -37.129  33.788  1.00  0.00    -0.063 C 
ATOM      8  C   UNL     1      27.724 -36.976  33.288  1.00  0.00    -0.003 C 
ATOM      9  C   UNL     1      26.314 -37.186  33.939  1.00  0.00    -0.011 C 
ATOM     10  C   UNL     1      31.503 -37.192  34.803  1.00  0.00    -0.006 C 
ATOM     11  C   UNL     1      30.624 -37.080  32.458  1.00  0.00    -0.027 C 
ATOM     12  C   UNL     1      27.830 -35.525  32.748  1.00  0.00     0.008 C 
ATOM     13  C   UNL     1      25.255 -37.524  32.878  1.00  0.00     0.008 C 
ATOM     14  C   UNL     1      31.871 -35.708  35.161  1.00  0.00     0.017 C 
ATOM     15  C   UNL     1      32.769 -37.966  34.169  1.00  0.00    -0.020 C 
ATOM     16  C   UNL     1      31.997 -37.133  31.835  1.00  0.00     0.032 C 
ATOM     17  C   UNL     1      33.176 -37.220  32.839  1.00  0.00     0.006 C 
ATOM     18  C   UNL     1      33.979 -37.999  35.198  1.00  0.00     0.008 C 
ATOM     19  C   UNL     1      32.382 -39.443  33.821  1.00  0.00     0.012 C 
ATOM     20  C   UNL     1      34.598 -37.578  32.178  1.00  0.00    -0.025 C 
ATOM     21  C   UNL     1      35.338 -37.560  34.626  1.00  0.00     0.005 C 
ATOM     22  C   UNL     1      35.549 -38.216  33.252  1.00  0.00     0.003 C 
ATOM     23  C   UNL     1      34.520 -38.585  30.977  1.00  0.00     0.010 C 
ATOM     24  C   UNL     1      35.149 -36.223  31.628  1.00  0.00     0.012 C 
ATOM     25  C   UNL     1      37.046 -38.466  32.802  1.00  0.00    -0.006 C 
ATOM     26  C   UNL     1      35.759 -39.500  30.783  1.00  0.00     0.033 C 
ATOM     27  C   UNL     1      37.104 -38.929  31.290  1.00  0.00     0.120 C 
ATOM     28  C   UNL     1      37.957 -37.235  33.056  1.00  0.00     0.014 C 
ATOM     29  C   UNL     1      37.635 -39.623  33.664  1.00  0.00     0.014 C 
ENDROOT
BRANCH   1  30
ATOM     30  C   UNL     1      28.213 -35.590  35.899  1.00  0.00     0.048 C 
ATOM     31  O   UNL     1      29.077 -34.703  35.665  1.00  0.00    -0.550 OA
ATOM     32  O   UNL     1      26.965 -35.189  36.363  1.00  0.00    -0.550 OA
ENDBRANCH   1  30
BRANCH  27  33
ATOM     33  O   UNL     1      37.557 -37.910  30.434  1.00  0.00    -0.393 OA
ATOM     34  H   UNL     1      37.914 -38.344  29.616  1.00  0.00     0.210 HD
ENDBRANCH  27  33
TORSDOF 2
ENDMDL
MODEL 6
REMARK VINA RESULT:    -7.168      1.630      2.325
REMARK INTER + INTRA:          -7.578
REMARK INTER:                  -7.801
REMARK INTRA:                   0.223
REMARK UNBOUND:                 0.219
REMARK SMILES C[C@H]1[C@H]2C3=CC[C@@H]4[C@]5(C)CC[C@@H](O)C(C)(C)[C@H]5CC[C@@]4(C)[C@]3(C)CC[C@]2(C(=O)[O-])CC[C@@H]1C
REMARK SMILES IDX 26 1 30 2 25 3 3 4 31 5 24 6 4 7 2 8 32 9 22 10 5 11 1 12
REMARK SMILES IDX 33 13 23 14 20 15 6 16 7 17 19 18 21 19 8 20 18 21 17 22
REMARK SMILES IDX 10 23 9 24 14 25 11 26 12 27 15 28 16 29 27 30 28 31 29 32
REMARK SMILES IDX 13 33
REMARK H PARENT 13 34
REMARK Flexibility Score: inf
ROOT
ATOM      1  C   UNL     1      38.213 -40.943  32.932  1.00  0.00     0.017 C 
ATOM      2  C   UNL     1      39.309 -41.571  33.873  1.00  0.00     0.014 C 
ATOM      3  C   UNL     1      36.829 -41.588  33.283  1.00  0.00     0.014 C 
ATOM      4  C   UNL     1      38.258 -39.386  33.163  1.00  0.00     0.030 C 
ATOM      5  C   UNL     1      40.567 -40.697  34.094  1.00  0.00     0.004 C 
ATOM      6  C   UNL     1      35.780 -40.606  33.815  1.00  0.00     0.013 C 
ATOM      7  C   UNL     1      36.963 -38.610  32.830  1.00  0.00    -0.063 C 
ATOM      8  C   UNL     1      39.627 -38.774  32.660  1.00  0.00    -0.003 C 
ATOM      9  C   UNL     1      40.840 -39.729  32.930  1.00  0.00    -0.011 C 
ATOM     10  C   UNL     1      35.596 -39.307  32.960  1.00  0.00    -0.006 C 
ATOM     11  C   UNL     1      37.016 -37.260  32.678  1.00  0.00    -0.027 C 
ATOM     12  C   UNL     1      39.640 -38.336  31.171  1.00  0.00     0.008 C 
ATOM     13  C   UNL     1      42.128 -38.934  33.195  1.00  0.00     0.008 C 
ATOM     14  C   UNL     1      35.137 -39.677  31.504  1.00  0.00     0.017 C 
ATOM     15  C   UNL     1      34.530 -38.329  33.673  1.00  0.00    -0.020 C 
ATOM     16  C   UNL     1      35.836 -36.322  32.672  1.00  0.00     0.032 C 
ATOM     17  C   UNL     1      34.449 -37.000  32.826  1.00  0.00     0.006 C 
ATOM     18  C   UNL     1      33.108 -39.028  33.775  1.00  0.00     0.008 C 
ATOM     19  C   UNL     1      35.005 -37.974  35.124  1.00  0.00     0.012 C 
ATOM     20  C   UNL     1      33.234 -35.988  33.121  1.00  0.00    -0.025 C 
ATOM     21  C   UNL     1      31.922 -38.179  33.283  1.00  0.00     0.005 C 
ATOM     22  C   UNL     1      32.058 -36.749  33.831  1.00  0.00     0.003 C 
ATOM     23  C   UNL     1      33.612 -34.770  34.035  1.00  0.00     0.010 C 
ATOM     24  C   UNL     1      32.818 -35.426  31.724  1.00  0.00     0.012 C 
ATOM     25  C   UNL     1      30.718 -35.932  34.034  1.00  0.00    -0.006 C 
ATOM     26  C   UNL     1      32.466 -34.213  34.922  1.00  0.00     0.033 C 
ATOM     27  C   UNL     1      31.032 -34.420  34.381  1.00  0.00     0.120 C 
ATOM     28  C   UNL     1      29.759 -36.049  32.819  1.00  0.00     0.014 C 
ATOM     29  C   UNL     1      29.950 -36.535  35.249  1.00  0.00     0.014 C 
ENDROOT
BRANCH   1  30
ATOM     30  C   UNL     1      38.506 -41.285  31.472  1.00  0.00     0.048 C 
ATOM     31  O   UNL     1      37.756 -40.854  30.557  1.00  0.00    -0.550 OA
ATOM     32  O   UNL     1      39.551 -42.134  31.124  1.00  0.00    -0.550 OA
ENDBRANCH   1  30
BRANCH  27  33
ATOM     33  O   UNL     1      30.789 -33.560  33.296  1.00  0.00    -0.393 OA
ATOM     34  H   UNL     1      31.329 -32.740  33.440  1.00  0.00     0.210 HD
ENDBRANCH  27  33
TORSDOF 2
ENDMDL
MODEL 7
REMARK VINA RESULT:    -7.153      1.671      8.078
REMARK INTER + INTRA:          -7.562
REMARK INTER:                  -7.773
REMARK INTRA:                   0.211
REMARK UNBOUND:                 0.219
REMARK SMILES C[C@H]1[C@H]2C3=CC[C@@H]4[C@]5(C)CC[C@@H](O)C(C)(C)[C@H]5CC[C@@]4(C)[C@]3(C)CC[C@]2(C(=O)[O-])CC[C@@H]1C
REMARK SMILES IDX 26 1 30 2 25 3 3 4 31 5 24 6 4 7 2 8 32 9 22 10 5 11 1 12
REMARK SMILES IDX 33 13 23 14 20 15 6 16 7 17 19 18 21 19 8 20 18 21 17 22
REMARK SMILES IDX 10 23 9 24 14 25 11 26 12 27 15 28 16 29 27 30 28 31 29 32
REMARK SMILES IDX 13 33
REMARK H PARENT 13 34
REMARK Flexibility Score: inf
ROOT
ATOM      1  C   UNL     1      31.050 -37.005  34.377  1.00  0.00     0.017 C 
ATOM      2  C   UNL     1      29.620 -36.914  33.726  1.00  0.00     0.014 C 
ATOM      3  C   UNL     1      31.434 -38.517  34.523  1.00  0.00     0.014 C 
ATOM      4  C   UNL     1      32.025 -36.196  33.442  1.00  0.00     0.030 C 
ATOM      5  C   UNL     1      29.316 -35.589  32.984  1.00  0.00     0.004 C 
ATOM      6  C   UNL     1      32.660 -38.950  33.712  1.00  0.00     0.013 C 
ATOM      7  C   UNL     1      33.519 -36.588  33.513  1.00  0.00    -0.063 C 
ATOM      8  C   UNL     1      31.672 -34.655  33.446  1.00  0.00    -0.003 C 
ATOM      9  C   UNL     1      30.128 -34.399  33.523  1.00  0.00    -0.011 C 
ATOM     10  C   UNL     1      33.917 -38.031  33.874  1.00  0.00    -0.006 C 
ATOM     11  C   UNL     1      34.454 -35.739  33.009  1.00  0.00    -0.027 C 
ATOM     12  C   UNL     1      32.386 -33.823  34.545  1.00  0.00     0.008 C 
ATOM     13  C   UNL     1      29.738 -33.113  32.778  1.00  0.00     0.008 C 
ATOM     14  C   UNL     1      34.382 -38.008  35.374  1.00  0.00     0.017 C 
ATOM     15  C   UNL     1      35.102 -38.547  32.908  1.00  0.00    -0.020 C 
ATOM     16  C   UNL     1      35.891 -36.083  32.704  1.00  0.00     0.032 C 
ATOM     17  C   UNL     1      36.308 -37.539  33.039  1.00  0.00     0.006 C 
ATOM     18  C   UNL     1      35.544 -40.021  33.302  1.00  0.00     0.008 C 
ATOM     19  C   UNL     1      34.617 -38.564  31.418  1.00  0.00     0.012 C 
ATOM     20  C   UNL     1      37.734 -37.985  32.440  1.00  0.00    -0.025 C 
ATOM     21  C   UNL     1      37.060 -40.229  33.466  1.00  0.00     0.005 C 
ATOM     22  C   UNL     1      37.796 -39.548  32.302  1.00  0.00     0.003 C 
ATOM     23  C   UNL     1      38.059 -37.385  31.027  1.00  0.00     0.010 C 
ATOM     24  C   UNL     1      38.793 -37.435  33.448  1.00  0.00     0.012 C 
ATOM     25  C   UNL     1      39.197 -40.158  31.889  1.00  0.00    -0.006 C 
ATOM     26  C   UNL     1      38.958 -38.262  30.114  1.00  0.00     0.033 C 
ATOM     27  C   UNL     1      39.928 -39.222  30.843  1.00  0.00     0.120 C 
ATOM     28  C   UNL     1      40.102 -40.456  33.115  1.00  0.00     0.014 C 
ATOM     29  C   UNL     1      38.953 -41.529  31.190  1.00  0.00     0.014 C 
ENDROOT
BRANCH   1  30
ATOM     30  C   UNL     1      31.032 -36.413  35.785  1.00  0.00     0.048 C 
ATOM     31  O   UNL     1      32.073 -36.431  36.494  1.00  0.00    -0.550 OA
ATOM     32  O   UNL     1      29.861 -35.912  36.345  1.00  0.00    -0.550 OA
ENDBRANCH   1  30
BRANCH  27  33
ATOM     33  O   UNL     1      40.988 -38.501  31.419  1.00  0.00    -0.393 OA
ATOM     34  H   UNL     1      41.742 -39.133  31.551  1.00  0.00     0.210 HD
ENDBRANCH  27  33
TORSDOF 2
ENDMDL
MODEL 8
REMARK VINA RESULT:    -7.151      1.529      2.713
REMARK INTER + INTRA:          -7.559
REMARK INTER:                  -7.773
REMARK INTRA:                   0.214
REMARK UNBOUND:                 0.219
REMARK SMILES C[C@H]1[C@H]2C3=CC[C@@H]4[C@]5(C)CC[C@@H](O)C(C)(C)[C@H]5CC[C@@]4(C)[C@]3(C)CC[C@]2(C(=O)[O-])CC[C@@H]1C
REMARK SMILES IDX 26 1 30 2 25 3 3 4 31 5 24 6 4 7 2 8 32 9 22 10 5 11 1 12
REMARK SMILES IDX 33 13 23 14 20 15 6 16 7 17 19 18 21 19 8 20 18 21 17 22
REMARK SMILES IDX 10 23 9 24 14 25 11 26 12 27 15 28 16 29 27 30 28 31 29 32
REMARK SMILES IDX 13 33
REMARK H PARENT 13 34
REMARK Flexibility Score: inf
ROOT
ATOM      1  C   UNL     1      36.603 -38.967  31.173  1.00  0.00     0.017 C 
ATOM      2  C   UNL     1      37.289 -40.339  30.818  1.00  0.00     0.014 C 
ATOM      3  C   UNL     1      35.300 -38.826  30.313  1.00  0.00     0.014 C 
ATOM      4  C   UNL     1      36.334 -38.984  32.724  1.00  0.00     0.030 C 
ATOM      5  C   UNL     1      38.211 -40.919  31.917  1.00  0.00     0.004 C 
ATOM      6  C   UNL     1      34.000 -38.764  31.123  1.00  0.00     0.013 C 
ATOM      7  C   UNL     1      35.198 -38.066  33.229  1.00  0.00    -0.063 C 
ATOM      8  C   UNL     1      37.690 -38.985  33.537  1.00  0.00    -0.003 C 
ATOM      9  C   UNL     1      38.803 -39.838  32.837  1.00  0.00    -0.011 C 
ATOM     10  C   UNL     1      34.009 -37.739  32.307  1.00  0.00    -0.006 C 
ATOM     11  C   UNL     1      35.123 -37.766  34.553  1.00  0.00    -0.027 C 
ATOM     12  C   UNL     1      38.255 -37.578  33.870  1.00  0.00     0.008 C 
ATOM     13  C   UNL     1      39.745 -40.479  33.868  1.00  0.00     0.008 C 
ATOM     14  C   UNL     1      34.245 -36.284  31.764  1.00  0.00     0.017 C 
ATOM     15  C   UNL     1      32.620 -37.834  33.123  1.00  0.00    -0.020 C 
ATOM     16  C   UNL     1      33.933 -37.169  35.261  1.00  0.00     0.032 C 
ATOM     17  C   UNL     1      32.714 -36.852  34.355  1.00  0.00     0.006 C 
ATOM     18  C   UNL     1      31.393 -37.459  32.187  1.00  0.00     0.008 C 
ATOM     19  C   UNL     1      32.402 -39.291  33.654  1.00  0.00     0.012 C 
ATOM     20  C   UNL     1      31.358 -36.504  35.148  1.00  0.00    -0.025 C 
ATOM     21  C   UNL     1      30.411 -36.430  32.773  1.00  0.00     0.005 C 
ATOM     22  C   UNL     1      30.111 -36.788  34.238  1.00  0.00     0.003 C 
ATOM     23  C   UNL     1      31.155 -37.319  36.473  1.00  0.00     0.010 C 
ATOM     24  C   UNL     1      31.482 -34.995  35.531  1.00  0.00     0.012 C 
ATOM     25  C   UNL     1      28.708 -36.334  34.811  1.00  0.00    -0.006 C 
ATOM     26  C   UNL     1      29.681 -37.599  36.873  1.00  0.00     0.033 C 
ATOM     27  C   UNL     1      28.640 -36.568  36.375  1.00  0.00     0.120 C 
ATOM     28  C   UNL     1      28.360 -34.866  34.441  1.00  0.00     0.014 C 
ATOM     29  C   UNL     1      27.599 -37.216  34.162  1.00  0.00     0.014 C 
ENDROOT
BRANCH   1  30
ATOM     30  C   UNL     1      37.514 -37.802  30.791  1.00  0.00     0.048 C 
ATOM     31  O   UNL     1      37.130 -36.614  30.958  1.00  0.00    -0.550 OA
ATOM     32  O   UNL     1      38.749 -38.017  30.187  1.00  0.00    -0.550 OA
ENDBRANCH   1  30
BRANCH  27  33
ATOM     33  O   UNL     1      28.750 -35.371  37.102  1.00  0.00    -0.393 OA
ATOM     34  H   UNL     1      28.093 -34.730  36.722  1.00  0.00     0.210 HD
ENDBRANCH  27  33
TORSDOF 2
ENDMDL
MODEL 9
REMARK VINA RESULT:    -7.095      1.805      8.022
REMARK INTER + INTRA:          -7.499
REMARK INTER:                  -7.718
REMARK INTRA:                   0.219
REMARK UNBOUND:                 0.219
REMARK SMILES C[C@H]1[C@H]2C3=CC[C@@H]4[C@]5(C)CC[C@@H](O)C(C)(C)[C@H]5CC[C@@]4(C)[C@]3(C)CC[C@]2(C(=O)[O-])CC[C@@H]1C
REMARK SMILES IDX 26 1 30 2 25 3 3 4 31 5 24 6 4 7 2 8 32 9 22 10 5 11 1 12
REMARK SMILES IDX 33 13 23 14 20 15 6 16 7 17 19 18 21 19 8 20 18 21 17 22
REMARK SMILES IDX 10 23 9 24 14 25 11 26 12 27 15 28 16 29 27 30 28 31 29 32
REMARK SMILES IDX 13 33
REMARK H PARENT 13 34
REMARK Flexibility Score: inf
ROOT
ATOM      1  C   UNL     1      30.666 -35.133  33.080  1.00  0.00     0.017 C 
ATOM      2  C   UNL     1      30.254 -33.616  32.985  1.00  0.00     0.014 C 
ATOM      3  C   UNL     1      30.974 -35.655  31.634  1.00  0.00     0.014 C 
ATOM      4  C   UNL     1      31.903 -35.205  34.051  1.00  0.00     0.030 C 
ATOM      5  C   UNL     1      30.476 -32.791  34.275  1.00  0.00     0.004 C 
ATOM      6  C   UNL     1      32.419 -36.111  31.410  1.00  0.00     0.013 C 
ATOM      7  C   UNL     1      32.836 -36.426  33.877  1.00  0.00    -0.063 C 
ATOM      8  C   UNL     1      31.496 -34.800  35.524  1.00  0.00    -0.003 C 
ATOM      9  C   UNL     1      30.434 -33.648  35.552  1.00  0.00    -0.011 C 
ATOM     10  C   UNL     1      32.979 -37.091  32.496  1.00  0.00    -0.006 C 
ATOM     11  C   UNL     1      33.712 -36.740  34.868  1.00  0.00    -0.027 C 
ATOM     12  C   UNL     1      31.004 -35.973  36.413  1.00  0.00     0.008 C 
ATOM     13  C   UNL     1      30.609 -32.757  36.792  1.00  0.00     0.008 C 
ATOM     14  C   UNL     1      32.118 -38.404  32.536  1.00  0.00     0.017 C 
ATOM     15  C   UNL     1      34.527 -37.423  32.188  1.00  0.00    -0.020 C 
ATOM     16  C   UNL     1      34.892 -37.672  34.745  1.00  0.00     0.032 C 
ATOM     17  C   UNL     1      35.069 -38.337  33.355  1.00  0.00     0.006 C 
ATOM     18  C   UNL     1      34.677 -38.145  30.781  1.00  0.00     0.008 C 
ATOM     19  C   UNL     1      35.368 -36.101  32.150  1.00  0.00     0.012 C 
ATOM     20  C   UNL     1      36.479 -39.080  33.139  1.00  0.00    -0.025 C 
ATOM     21  C   UNL     1      35.531 -39.425  30.788  1.00  0.00     0.005 C 
ATOM     22  C   UNL     1      36.808 -39.181  31.607  1.00  0.00     0.003 C 
ATOM     23  C   UNL     1      37.698 -38.371  33.826  1.00  0.00     0.010 C 
ATOM     24  C   UNL     1      36.309 -40.485  33.803  1.00  0.00     0.012 C 
ATOM     25  C   UNL     1      38.080 -40.040  31.220  1.00  0.00    -0.006 C 
ATOM     26  C   UNL     1      39.068 -38.551  33.119  1.00  0.00     0.033 C 
ATOM     27  C   UNL     1      39.233 -39.844  32.286  1.00  0.00     0.120 C 
ATOM     28  C   UNL     1      37.744 -41.542  31.015  1.00  0.00     0.014 C 
ATOM     29  C   UNL     1      38.624 -39.530  29.851  1.00  0.00     0.014 C 
ENDROOT
BRANCH   1  30
ATOM     30  C   UNL     1      29.504 -35.967  33.616  1.00  0.00     0.048 C 
ATOM     31  O   UNL     1      29.609 -37.220  33.702  1.00  0.00    -0.550 OA
ATOM     32  O   UNL     1      28.287 -35.383  33.949  1.00  0.00    -0.550 OA
ENDBRANCH   1  30
BRANCH  27  33
ATOM     33  O   UNL     1      39.374 -40.957  33.133  1.00  0.00    -0.393 OA
ATOM     34  H   UNL     1      40.279 -41.336  32.978  1.00  0.00     0.210 HD
ENDBRANCH  27  33
TORSDOF 2
ENDMDL
