MODEL 1
REMARK VINA RESULT:    -4.931      0.000      0.000
REMARK INTER + INTRA:         -13.542
REMARK INTER:                 -11.272
REMARK INTRA:                  -2.270
REMARK UNBOUND:                -2.270
REMARK SMILES CCCCCCCCCCCCCCCCCCCCCCCC(=O)[O-]
REMARK SMILES IDX 13 1 14 2 15 3 16 4 17 5 18 6 19 7 20 8 21 9 22 10 23 11
REMARK SMILES IDX 24 12 25 13 26 14 12 15 11 16 10 17 9 18 8 19 7 20 6 21 5 22
REMARK SMILES IDX 4 23 3 24 2 25 1 26
REMARK H PARENT
REMARK Flexibility Score: inf
ROOT
ATOM      1  C   UNL     1      -5.123  -2.377  28.243  1.00  0.00     0.000 C 
ENDROOT
BRANCH   1   2
ATOM      2  C   UNL     1      -5.253  -2.972  29.653  1.00  0.00     0.000 C 
BRANCH   2   3
ATOM      3  C   UNL     1      -5.416  -4.500  29.639  1.00  0.00     0.000 C 
BRANCH   3   4
ATOM      4  C   UNL     1      -5.332  -5.091  28.222  1.00  0.00     0.000 C 
BRANCH   4   5
ATOM      5  C   UNL     1      -5.963  -6.491  28.141  1.00  0.00     0.000 C 
BRANCH   5   6
ATOM      6  C   UNL     1      -5.798  -7.284  29.449  1.00  0.00     0.000 C 
BRANCH   6   7
ATOM      7  C   UNL     1      -6.326  -8.726  29.333  1.00  0.00     0.000 C 
BRANCH   7   8
ATOM      8  C   UNL     1      -5.187  -9.758  29.251  1.00  0.00     0.000 C 
BRANCH   8   9
ATOM      9  C   UNL     1      -5.017 -10.343  27.841  1.00  0.00     0.000 C 
BRANCH   9  10
ATOM     10  C   UNL     1      -4.259 -11.678  27.841  1.00  0.00     0.006 C 
BRANCH  10  11
ATOM     11  C   UNL     1      -3.614 -11.941  26.474  1.00  0.00     0.053 C 
BRANCH  11  12
ATOM     12  C   UNL     1      -4.072 -13.244  25.894  1.00  0.00     0.041 C 
ATOM     13  O   UNL     1      -5.177 -13.741  26.240  1.00  0.00    -0.550 OA
ATOM     14  O   UNL     1      -3.304 -13.885  24.927  1.00  0.00    -0.550 OA
ENDBRANCH  11  12
ENDBRANCH  10  11
ENDBRANCH   9  10
ENDBRANCH   8   9
ENDBRANCH   7   8
ENDBRANCH   6   7
ENDBRANCH   5   6
ENDBRANCH   4   5
ENDBRANCH   3   4
ENDBRANCH   2   3
ENDBRANCH   1   2
BRANCH   1  15
ATOM     15  C   UNL     1      -4.658  -0.915  28.315  1.00  0.00     0.000 C 
BRANCH  15  16
ATOM     16  C   UNL     1      -5.659   0.003  29.032  1.00  0.00     0.000 C 
BRANCH  16  17
ATOM     17  C   UNL     1      -4.975   1.186  29.736  1.00  0.00     0.000 C 
BRANCH  17  18
ATOM     18  C   UNL     1      -3.442   1.060  29.745  1.00  0.00    -0.000 C 
BRANCH  18  19
ATOM     19  C   UNL     1      -2.716   2.425  29.801  1.00  0.00    -0.000 C 
BRANCH  19  20
ATOM     20  C   UNL     1      -1.614   2.542  28.738  1.00  0.00    -0.000 C 
BRANCH  20  21
ATOM     21  C   UNL     1      -0.862   1.211  28.579  1.00  0.00    -0.000 C 
BRANCH  21  22
ATOM     22  C   UNL     1      -0.879   0.685  27.133  1.00  0.00    -0.000 C 
BRANCH  22  23
ATOM     23  C   UNL     1      -0.916  -0.851  27.001  1.00  0.00    -0.000 C 
BRANCH  23  24
ATOM     24  C   UNL     1      -1.045  -1.620  28.332  1.00  0.00    -0.000 C 
BRANCH  24  25
ATOM     25  C   UNL     1      -0.987  -3.152  28.202  1.00  0.00    -0.003 C 
ATOM     26  C   UNL     1      -1.769  -3.876  29.296  1.00  0.00     0.004 C 
ENDBRANCH  24  25
ENDBRANCH  23  24
ENDBRANCH  22  23
ENDBRANCH  21  22
ENDBRANCH  20  21
ENDBRANCH  19  20
ENDBRANCH  18  19
ENDBRANCH  17  18
ENDBRANCH  16  17
ENDBRANCH  15  16
ENDBRANCH   1  15
TORSDOF 22
ENDMDL
MODEL 2
REMARK VINA RESULT:    -4.795      4.109     10.520
REMARK INTER + INTRA:         -13.231
REMARK INTER:                 -11.955
REMARK INTRA:                  -1.276
REMARK UNBOUND:                -2.270
REMARK SMILES CCCCCCCCCCCCCCCCCCCCCCCC(=O)[O-]
REMARK SMILES IDX 13 1 14 2 15 3 16 4 17 5 18 6 19 7 20 8 21 9 22 10 23 11
REMARK SMILES IDX 24 12 25 13 26 14 12 15 11 16 10 17 9 18 8 19 7 20 6 21 5 22
REMARK SMILES IDX 4 23 3 24 2 25 1 26
REMARK H PARENT
REMARK Flexibility Score: inf
ROOT
ATOM      1  C   UNL     1      -5.757  -7.241  29.605  1.00  0.00     0.000 C 
ENDROOT
BRANCH   1   2
ATOM      2  C   UNL     1      -5.797  -6.608  28.206  1.00  0.00     0.000 C 
BRANCH   2   3
ATOM      3  C   UNL     1      -5.512  -5.098  28.230  1.00  0.00     0.000 C 
BRANCH   3   4
ATOM      4  C   UNL     1      -5.672  -4.488  29.633  1.00  0.00     0.000 C 
BRANCH   4   5
ATOM      5  C   UNL     1      -5.197  -3.027  29.685  1.00  0.00     0.000 C 
BRANCH   5   6
ATOM      6  C   UNL     1      -5.356  -2.310  28.333  1.00  0.00     0.000 C 
BRANCH   6   7
ATOM      7  C   UNL     1      -4.507  -1.029  28.242  1.00  0.00     0.000 C 
BRANCH   7   8
ATOM      8  C   UNL     1      -2.997  -1.328  28.272  1.00  0.00     0.000 C 
BRANCH   8   9
ATOM      9  C   UNL     1      -2.197  -0.433  27.313  1.00  0.00     0.000 C 
BRANCH   9  10
ATOM     10  C   UNL     1      -0.694  -0.422  27.630  1.00  0.00     0.006 C 
BRANCH  10  11
ATOM     11  C   UNL     1      -0.064  -1.792  27.346  1.00  0.00     0.053 C 
BRANCH  11  12
ATOM     12  C   UNL     1       0.510  -2.398  28.590  1.00  0.00     0.041 C 
ATOM     13  O   UNL     1      -0.097  -3.331  29.181  1.00  0.00    -0.550 OA
ATOM     14  O   UNL     1       1.745  -1.971  29.067  1.00  0.00    -0.550 OA
ENDBRANCH  11  12
ENDBRANCH  10  11
ENDBRANCH   9  10
ENDBRANCH   8   9
ENDBRANCH   7   8
ENDBRANCH   6   7
ENDBRANCH   5   6
ENDBRANCH   4   5
ENDBRANCH   3   4
ENDBRANCH   2   3
ENDBRANCH   1   2
BRANCH   1  15
ATOM     15  C   UNL     1      -6.396  -8.638  29.583  1.00  0.00     0.000 C 
BRANCH  15  16
ATOM     16  C   UNL     1      -5.365  -9.775  29.637  1.00  0.00     0.000 C 
BRANCH  16  17
ATOM     17  C   UNL     1      -4.977 -10.286  28.239  1.00  0.00     0.000 C 
BRANCH  17  18
ATOM     18  C   UNL     1      -3.869 -11.351  28.288  1.00  0.00    -0.000 C 
BRANCH  18  19
ATOM     19  C   UNL     1      -3.607 -12.024  26.920  1.00  0.00    -0.000 C 
BRANCH  19  20
ATOM     20  C   UNL     1      -4.611 -11.573  25.848  1.00  0.00    -0.000 C 
BRANCH  20  21
ATOM     21  C   UNL     1      -3.997 -11.680  24.444  1.00  0.00    -0.000 C 
BRANCH  21  22
ATOM     22  C   UNL     1      -2.663 -12.449  24.432  1.00  0.00    -0.000 C 
BRANCH  22  23
ATOM     23  C   UNL     1      -2.397 -13.269  23.154  1.00  0.00    -0.000 C 
BRANCH  23  24
ATOM     24  C   UNL     1      -0.999 -13.075  22.530  1.00  0.00    -0.000 C 
BRANCH  24  25
ATOM     25  C   UNL     1      -0.152 -11.963  23.177  1.00  0.00    -0.003 C 
ATOM     26  C   UNL     1       0.878 -11.364  22.221  1.00  0.00     0.004 C 
ENDBRANCH  24  25
ENDBRANCH  23  24
ENDBRANCH  22  23
ENDBRANCH  21  22
ENDBRANCH  20  21
ENDBRANCH  19  20
ENDBRANCH  18  19
ENDBRANCH  17  18
ENDBRANCH  16  17
ENDBRANCH  15  16
ENDBRANCH   1  15
TORSDOF 22
ENDMDL
MODEL 3
REMARK VINA RESULT:    -4.774      1.201      1.964
REMARK INTER + INTRA:         -13.184
REMARK INTER:                 -10.787
REMARK INTRA:                  -2.398
REMARK UNBOUND:                -2.270
REMARK SMILES CCCCCCCCCCCCCCCCCCCCCCCC(=O)[O-]
REMARK SMILES IDX 13 1 14 2 15 3 16 4 17 5 18 6 19 7 20 8 21 9 22 10 23 11
REMARK SMILES IDX 24 12 25 13 26 14 12 15 11 16 10 17 9 18 8 19 7 20 6 21 5 22
REMARK SMILES IDX 4 23 3 24 2 25 1 26
REMARK H PARENT
REMARK Flexibility Score: inf
ROOT
ATOM      1  C   UNL     1      -4.310  -1.253  27.892  1.00  0.00     0.000 C 
ENDROOT
BRANCH   1   2
ATOM      2  C   UNL     1      -5.384  -2.300  28.223  1.00  0.00     0.000 C 
BRANCH   2   3
ATOM      3  C   UNL     1      -5.229  -2.882  29.637  1.00  0.00     0.000 C 
BRANCH   3   4
ATOM      4  C   UNL     1      -5.428  -4.406  29.675  1.00  0.00     0.000 C 
BRANCH   4   5
ATOM      5  C   UNL     1      -5.261  -5.045  28.287  1.00  0.00     0.000 C 
BRANCH   5   6
ATOM      6  C   UNL     1      -5.963  -6.410  28.182  1.00  0.00     0.000 C 
BRANCH   6   7
ATOM      7  C   UNL     1      -5.769  -7.271  29.443  1.00  0.00     0.000 C 
BRANCH   7   8
ATOM      8  C   UNL     1      -6.367  -8.680  29.286  1.00  0.00     0.000 C 
BRANCH   8   9
ATOM      9  C   UNL     1      -5.315  -9.790  29.425  1.00  0.00     0.000 C 
BRANCH   9  10
ATOM     10  C   UNL     1      -5.002 -10.480  28.089  1.00  0.00     0.006 C 
BRANCH  10  11
ATOM     11  C   UNL     1      -3.948 -11.580  28.275  1.00  0.00     0.053 C 
BRANCH  11  12
ATOM     12  C   UNL     1      -3.104 -11.742  27.048  1.00  0.00     0.041 C 
ATOM     13  O   UNL     1      -1.848 -11.801  27.144  1.00  0.00    -0.550 OA
ATOM     14  O   UNL     1      -3.705 -11.884  25.802  1.00  0.00    -0.550 OA
ENDBRANCH  11  12
ENDBRANCH  10  11
ENDBRANCH   9  10
ENDBRANCH   8   9
ENDBRANCH   7   8
ENDBRANCH   6   7
ENDBRANCH   5   6
ENDBRANCH   4   5
ENDBRANCH   3   4
ENDBRANCH   2   3
ENDBRANCH   1   2
BRANCH   1  15
ATOM     15  C   UNL     1      -4.230  -0.194  29.003  1.00  0.00     0.000 C 
BRANCH  15  16
ATOM     16  C   UNL     1      -2.788   0.196  29.363  1.00  0.00     0.000 C 
BRANCH  16  17
ATOM     17  C   UNL     1      -2.666   1.664  29.803  1.00  0.00     0.000 C 
BRANCH  17  18
ATOM     18  C   UNL     1      -1.239   2.213  29.633  1.00  0.00    -0.000 C 
BRANCH  18  19
ATOM     19  C   UNL     1      -1.027   2.961  28.296  1.00  0.00    -0.000 C 
BRANCH  19  20
ATOM     20  C   UNL     1      -0.597   2.018  27.163  1.00  0.00    -0.000 C 
BRANCH  20  21
ATOM     21  C   UNL     1       0.674   1.245  27.547  1.00  0.00    -0.000 C 
BRANCH  21  22
ATOM     22  C   UNL     1       0.457  -0.279  27.589  1.00  0.00    -0.000 C 
BRANCH  22  23
ATOM     23  C   UNL     1       0.766  -0.941  28.947  1.00  0.00    -0.000 C 
BRANCH  23  24
ATOM     24  C   UNL     1       0.393  -2.435  29.046  1.00  0.00    -0.000 C 
BRANCH  24  25
ATOM     25  C   UNL     1      -0.895  -2.830  28.302  1.00  0.00    -0.003 C 
ATOM     26  C   UNL     1      -1.717  -3.882  29.046  1.00  0.00     0.004 C 
ENDBRANCH  24  25
ENDBRANCH  23  24
ENDBRANCH  22  23
ENDBRANCH  21  22
ENDBRANCH  20  21
ENDBRANCH  19  20
ENDBRANCH  18  19
ENDBRANCH  17  18
ENDBRANCH  16  17
ENDBRANCH  15  16
ENDBRANCH   1  15
TORSDOF 22
ENDMDL
MODEL 4
REMARK VINA RESULT:    -4.702      4.115     10.984
REMARK INTER + INTRA:         -13.018
REMARK INTER:                 -11.340
REMARK INTRA:                  -1.679
REMARK UNBOUND:                -2.270
REMARK SMILES CCCCCCCCCCCCCCCCCCCCCCCC(=O)[O-]
REMARK SMILES IDX 13 1 14 2 15 3 16 4 17 5 18 6 19 7 20 8 21 9 22 10 23 11
REMARK SMILES IDX 24 12 25 13 26 14 12 15 11 16 10 17 9 18 8 19 7 20 6 21 5 22
REMARK SMILES IDX 4 23 3 24 2 25 1 26
REMARK H PARENT
REMARK Flexibility Score: inf
ROOT
ATOM      1  C   UNL     1      -5.486  -9.670  28.690  1.00  0.00     0.000 C 
ENDROOT
BRANCH   1   2
ATOM      2  C   UNL     1      -6.256  -8.802  29.697  1.00  0.00     0.000 C 
BRANCH   2   3
ATOM      3  C   UNL     1      -5.808  -7.332  29.675  1.00  0.00     0.000 C 
BRANCH   3   4
ATOM      4  C   UNL     1      -6.012  -6.672  28.302  1.00  0.00     0.000 C 
BRANCH   4   5
ATOM      5  C   UNL     1      -5.400  -5.262  28.242  1.00  0.00     0.000 C 
BRANCH   5   6
ATOM      6  C   UNL     1      -5.530  -4.510  29.578  1.00  0.00     0.000 C 
BRANCH   6   7
ATOM      7  C   UNL     1      -4.909  -3.102  29.524  1.00  0.00     0.000 C 
BRANCH   7   8
ATOM      8  C   UNL     1      -5.425  -2.283  28.328  1.00  0.00     0.000 C 
BRANCH   8   9
ATOM      9  C   UNL     1      -4.464  -1.156  27.922  1.00  0.00     0.000 C 
BRANCH   9  10
ATOM     10  C   UNL     1      -3.371  -0.903  28.970  1.00  0.00     0.006 C 
BRANCH  10  11
ATOM     11  C   UNL     1      -2.059  -0.476  28.300  1.00  0.00     0.053 C 
BRANCH  11  12
ATOM     12  C   UNL     1      -1.151  -1.646  28.077  1.00  0.00     0.041 C 
ATOM     13  O   UNL     1      -1.442  -2.777  28.552  1.00  0.00    -0.550 OA
ATOM     14  O   UNL     1      -0.008  -1.503  27.297  1.00  0.00    -0.550 OA
ENDBRANCH  11  12
ENDBRANCH  10  11
ENDBRANCH   9  10
ENDBRANCH   8   9
ENDBRANCH   7   8
ENDBRANCH   6   7
ENDBRANCH   5   6
ENDBRANCH   4   5
ENDBRANCH   3   4
ENDBRANCH   2   3
ENDBRANCH   1   2
BRANCH   1  15
ATOM     15  C   UNL     1      -4.665 -10.744  29.421  1.00  0.00     0.000 C 
BRANCH  15  16
ATOM     16  C   UNL     1      -4.001 -11.749  28.469  1.00  0.00     0.000 C 
BRANCH  16  17
ATOM     17  C   UNL     1      -4.064 -11.300  26.999  1.00  0.00     0.000 C 
BRANCH  17  18
ATOM     18  C   UNL     1      -4.932 -12.231  26.136  1.00  0.00    -0.000 C 
BRANCH  18  19
ATOM     19  C   UNL     1      -4.557 -13.725  26.282  1.00  0.00    -0.000 C 
BRANCH  19  20
ATOM     20  C   UNL     1      -3.222 -14.059  25.602  1.00  0.00    -0.000 C 
BRANCH  20  21
ATOM     21  C   UNL     1      -3.375 -14.072  24.073  1.00  0.00    -0.000 C 
BRANCH  21  22
ATOM     22  C   UNL     1      -2.283 -13.256  23.357  1.00  0.00    -0.000 C 
BRANCH  22  23
ATOM     23  C   UNL     1      -1.631 -12.152  24.214  1.00  0.00    -0.000 C 
BRANCH  23  24
ATOM     24  C   UNL     1      -0.260 -11.655  23.709  1.00  0.00    -0.000 C 
BRANCH  24  25
ATOM     25  C   UNL     1       0.355 -12.497  22.577  1.00  0.00    -0.003 C 
ATOM     26  C   UNL     1       0.755 -11.663  21.361  1.00  0.00     0.004 C 
ENDBRANCH  24  25
ENDBRANCH  23  24
ENDBRANCH  22  23
ENDBRANCH  21  22
ENDBRANCH  20  21
ENDBRANCH  19  20
ENDBRANCH  18  19
ENDBRANCH  17  18
ENDBRANCH  16  17
ENDBRANCH  15  16
ENDBRANCH   1  15
TORSDOF 22
ENDMDL
MODEL 5
REMARK VINA RESULT:    -4.693      1.747      3.328
REMARK INTER + INTRA:         -12.998
REMARK INTER:                 -11.168
REMARK INTRA:                  -1.830
REMARK UNBOUND:                -2.270
REMARK SMILES CCCCCCCCCCCCCCCCCCCCCCCC(=O)[O-]
REMARK SMILES IDX 13 1 14 2 15 3 16 4 17 5 18 6 19 7 20 8 21 9 22 10 23 11
REMARK SMILES IDX 24 12 25 13 26 14 12 15 11 16 10 17 9 18 8 19 7 20 6 21 5 22
REMARK SMILES IDX 4 23 3 24 2 25 1 26
REMARK H PARENT
REMARK Flexibility Score: inf
ROOT
ATOM      1  C   UNL     1      -5.702  -5.331  27.904  1.00  0.00     0.000 C 
ENDROOT
BRANCH   1   2
ATOM      2  C   UNL     1      -5.617  -6.307  29.088  1.00  0.00     0.000 C 
BRANCH   2   3
ATOM      3  C   UNL     1      -6.107  -7.719  28.728  1.00  0.00     0.000 C 
BRANCH   3   4
ATOM      4  C   UNL     1      -5.973  -8.707  29.899  1.00  0.00     0.000 C 
BRANCH   4   5
ATOM      5  C   UNL     1      -5.252 -10.000  29.483  1.00  0.00     0.000 C 
BRANCH   5   6
ATOM      6  C   UNL     1      -5.240 -10.200  27.957  1.00  0.00     0.000 C 
BRANCH   6   7
ATOM      7  C   UNL     1      -4.204 -11.246  27.508  1.00  0.00     0.000 C 
BRANCH   7   8
ATOM      8  C   UNL     1      -4.540 -11.845  26.131  1.00  0.00     0.000 C 
BRANCH   8   9
ATOM      9  C   UNL     1      -3.434 -12.770  25.601  1.00  0.00     0.000 C 
BRANCH   9  10
ATOM     10  C   UNL     1      -3.039 -12.451  24.152  1.00  0.00     0.006 C 
BRANCH  10  11
ATOM     11  C   UNL     1      -1.530 -12.197  24.039  1.00  0.00     0.053 C 
BRANCH  11  12
ATOM     12  C   UNL     1      -0.898 -13.098  23.022  1.00  0.00     0.041 C 
ATOM     13  O   UNL     1      -0.164 -12.618  22.116  1.00  0.00    -0.550 OA
ATOM     14  O   UNL     1      -1.074 -14.475  23.105  1.00  0.00    -0.550 OA
ENDBRANCH  11  12
ENDBRANCH  10  11
ENDBRANCH   9  10
ENDBRANCH   8   9
ENDBRANCH   7   8
ENDBRANCH   6   7
ENDBRANCH   5   6
ENDBRANCH   4   5
ENDBRANCH   3   4
ENDBRANCH   2   3
ENDBRANCH   1   2
BRANCH   1  15
ATOM     15  C   UNL     1      -6.040  -3.915  28.396  1.00  0.00     0.000 C 
BRANCH  15  16
ATOM     16  C   UNL     1      -5.393  -3.574  29.747  1.00  0.00     0.000 C 
BRANCH  16  17
ATOM     17  C   UNL     1      -4.659  -2.223  29.725  1.00  0.00     0.000 C 
BRANCH  17  18
ATOM     18  C   UNL     1      -5.051  -1.360  28.513  1.00  0.00    -0.000 C 
BRANCH  18  19
ATOM     19  C   UNL     1      -3.850  -0.624  27.873  1.00  0.00    -0.000 C 
BRANCH  19  20
ATOM     20  C   UNL     1      -2.925   0.004  28.926  1.00  0.00    -0.000 C 
BRANCH  20  21
ATOM     21  C   UNL     1      -1.727   0.697  28.258  1.00  0.00    -0.000 C 
BRANCH  21  22
ATOM     22  C   UNL     1      -1.211  -0.063  27.023  1.00  0.00    -0.000 C 
BRANCH  22  23
ATOM     23  C   UNL     1       0.142  -0.777  27.218  1.00  0.00    -0.000 C 
BRANCH  23  24
ATOM     24  C   UNL     1       0.050  -2.296  27.469  1.00  0.00    -0.000 C 
BRANCH  24  25
ATOM     25  C   UNL     1      -0.538  -2.690  28.836  1.00  0.00    -0.003 C 
ATOM     26  C   UNL     1      -1.483  -3.889  28.757  1.00  0.00     0.004 C 
ENDBRANCH  24  25
ENDBRANCH  23  24
ENDBRANCH  22  23
ENDBRANCH  21  22
ENDBRANCH  20  21
ENDBRANCH  19  20
ENDBRANCH  18  19
ENDBRANCH  17  18
ENDBRANCH  16  17
ENDBRANCH  15  16
ENDBRANCH   1  15
TORSDOF 22
ENDMDL
MODEL 6
REMARK VINA RESULT:    -4.659      4.368     10.669
REMARK INTER + INTRA:         -12.920
REMARK INTER:                 -11.043
REMARK INTRA:                  -1.876
REMARK UNBOUND:                -2.270
REMARK SMILES CCCCCCCCCCCCCCCCCCCCCCCC(=O)[O-]
REMARK SMILES IDX 13 1 14 2 15 3 16 4 17 5 18 6 19 7 20 8 21 9 22 10 23 11
REMARK SMILES IDX 24 12 25 13 26 14 12 15 11 16 10 17 9 18 8 19 7 20 6 21 5 22
REMARK SMILES IDX 4 23 3 24 2 25 1 26
REMARK H PARENT
REMARK Flexibility Score: inf
ROOT
ATOM      1  C   UNL     1      -5.303 -10.223  27.858  1.00  0.00     0.000 C 
ENDROOT
BRANCH   1   2
ATOM      2  C   UNL     1      -5.363  -9.606  29.264  1.00  0.00     0.000 C 
BRANCH   2   3
ATOM      3  C   UNL     1      -6.366  -8.445  29.359  1.00  0.00     0.000 C 
BRANCH   3   4
ATOM      4  C   UNL     1      -5.676  -7.075  29.460  1.00  0.00     0.000 C 
BRANCH   4   5
ATOM      5  C   UNL     1      -5.743  -6.295  28.137  1.00  0.00     0.000 C 
BRANCH   5   6
ATOM      6  C   UNL     1      -5.892  -4.779  28.357  1.00  0.00     0.000 C 
BRANCH   6   7
ATOM      7  C   UNL     1      -4.557  -4.102  28.713  1.00  0.00     0.000 C 
BRANCH   7   8
ATOM      8  C   UNL     1      -4.751  -2.862  29.604  1.00  0.00     0.000 C 
BRANCH   8   9
ATOM      9  C   UNL     1      -5.356  -1.673  28.842  1.00  0.00     0.000 C 
BRANCH   9  10
ATOM     10  C   UNL     1      -4.320  -0.929  27.987  1.00  0.00     0.006 C 
BRANCH  10  11
ATOM     11  C   UNL     1      -3.015  -0.720  28.767  1.00  0.00     0.053 C 
BRANCH  11  12
ATOM     12  C   UNL     1      -1.816  -1.000  27.913  1.00  0.00     0.041 C 
ATOM     13  O   UNL     1      -1.668  -0.409  26.810  1.00  0.00    -0.550 OA
ATOM     14  O   UNL     1      -0.832  -1.876  28.361  1.00  0.00    -0.550 OA
ENDBRANCH  11  12
ENDBRANCH  10  11
ENDBRANCH   9  10
ENDBRANCH   8   9
ENDBRANCH   7   8
ENDBRANCH   6   7
ENDBRANCH   5   6
ENDBRANCH   4   5
ENDBRANCH   3   4
ENDBRANCH   2   3
ENDBRANCH   1   2
BRANCH   1  15
ATOM     15  C   UNL     1      -4.288 -11.376  27.818  1.00  0.00     0.000 C 
BRANCH  15  16
ATOM     16  C   UNL     1      -3.521 -11.551  29.138  1.00  0.00     0.000 C 
BRANCH  16  17
ATOM     17  C   UNL     1      -2.004 -11.683  28.924  1.00  0.00     0.000 C 
BRANCH  17  18
ATOM     18  C   UNL     1      -1.636 -11.940  27.453  1.00  0.00    -0.000 C 
BRANCH  18  19
ATOM     19  C   UNL     1      -0.246 -11.385  27.065  1.00  0.00    -0.000 C 
BRANCH  19  20
ATOM     20  C   UNL     1       0.333 -12.082  25.825  1.00  0.00    -0.000 C 
BRANCH  20  21
ATOM     21  C   UNL     1       0.599 -11.069  24.700  1.00  0.00    -0.000 C 
BRANCH  21  22
ATOM     22  C   UNL     1       0.487 -11.692  23.297  1.00  0.00    -0.000 C 
BRANCH  22  23
ATOM     23  C   UNL     1      -0.254 -13.043  23.243  1.00  0.00    -0.000 C 
BRANCH  23  24
ATOM     24  C   UNL     1      -1.702 -12.975  22.713  1.00  0.00    -0.000 C 
BRANCH  24  25
ATOM     25  C   UNL     1      -2.785 -13.339  23.744  1.00  0.00    -0.003 C 
ATOM     26  C   UNL     1      -3.537 -12.121  24.276  1.00  0.00     0.004 C 
ENDBRANCH  24  25
ENDBRANCH  23  24
ENDBRANCH  22  23
ENDBRANCH  21  22
ENDBRANCH  20  21
ENDBRANCH  19  20
ENDBRANCH  18  19
ENDBRANCH  17  18
ENDBRANCH  16  17
ENDBRANCH  15  16
ENDBRANCH   1  15
TORSDOF 22
ENDMDL
MODEL 7
REMARK VINA RESULT:    -4.657      2.032      6.026
REMARK INTER + INTRA:         -12.916
REMARK INTER:                 -10.993
REMARK INTRA:                  -1.923
REMARK UNBOUND:                -2.270
REMARK SMILES CCCCCCCCCCCCCCCCCCCCCCCC(=O)[O-]
REMARK SMILES IDX 13 1 14 2 15 3 16 4 17 5 18 6 19 7 20 8 21 9 22 10 23 11
REMARK SMILES IDX 24 12 25 13 26 14 12 15 11 16 10 17 9 18 8 19 7 20 6 21 5 22
REMARK SMILES IDX 4 23 3 24 2 25 1 26
REMARK H PARENT
REMARK Flexibility Score: inf
ROOT
ATOM      1  C   UNL     1      -5.463  -9.527  28.553  1.00  0.00     0.000 C 
ENDROOT
BRANCH   1   2
ATOM      2  C   UNL     1      -4.711 -10.653  29.279  1.00  0.00     0.000 C 
BRANCH   2   3
ATOM      3  C   UNL     1      -3.942 -11.570  28.315  1.00  0.00     0.000 C 
BRANCH   3   4
ATOM      4  C   UNL     1      -4.315 -11.326  26.843  1.00  0.00     0.000 C 
BRANCH   4   5
ATOM      5  C   UNL     1      -4.997 -12.550  26.209  1.00  0.00     0.000 C 
BRANCH   5   6
ATOM      6  C   UNL     1      -4.457 -13.877  26.769  1.00  0.00     0.000 C 
BRANCH   6   7
ATOM      7  C   UNL     1      -4.332 -14.965  25.688  1.00  0.00     0.000 C 
BRANCH   7   8
ATOM      8  C   UNL     1      -3.079 -14.778  24.814  1.00  0.00     0.000 C 
BRANCH   8   9
ATOM      9  C   UNL     1      -3.415 -14.349  23.378  1.00  0.00     0.000 C 
BRANCH   9  10
ATOM     10  C   UNL     1      -2.528 -13.198  22.881  1.00  0.00     0.006 C 
BRANCH  10  11
ATOM     11  C   UNL     1      -2.091 -12.301  24.046  1.00  0.00     0.053 C 
BRANCH  11  12
ATOM     12  C   UNL     1      -0.606 -12.105  24.060  1.00  0.00     0.041 C 
ATOM     13  O   UNL     1      -0.021 -11.603  23.063  1.00  0.00    -0.550 OA
ATOM     14  O   UNL     1       0.129 -12.427  25.197  1.00  0.00    -0.550 OA
ENDBRANCH  11  12
ENDBRANCH  10  11
ENDBRANCH   9  10
ENDBRANCH   8   9
ENDBRANCH   7   8
ENDBRANCH   6   7
ENDBRANCH   5   6
ENDBRANCH   4   5
ENDBRANCH   3   4
ENDBRANCH   2   3
ENDBRANCH   1   2
BRANCH   1  15
ATOM     15  C   UNL     1      -6.250  -8.671  29.557  1.00  0.00     0.000 C 
BRANCH  15  16
ATOM     16  C   UNL     1      -5.829  -7.193  29.551  1.00  0.00     0.000 C 
BRANCH  16  17
ATOM     17  C   UNL     1      -5.893  -6.568  28.147  1.00  0.00     0.000 C 
BRANCH  17  18
ATOM     18  C   UNL     1      -5.737  -5.038  28.177  1.00  0.00    -0.000 C 
BRANCH  18  19
ATOM     19  C   UNL     1      -4.316  -4.577  28.582  1.00  0.00    -0.000 C 
BRANCH  19  20
ATOM     20  C   UNL     1      -4.335  -3.259  29.369  1.00  0.00    -0.000 C 
BRANCH  20  21
ATOM     21  C   UNL     1      -5.346  -2.273  28.763  1.00  0.00    -0.000 C 
BRANCH  21  22
ATOM     22  C   UNL     1      -4.674  -1.038  28.137  1.00  0.00    -0.000 C 
BRANCH  22  23
ATOM     23  C   UNL     1      -3.203  -0.821  28.548  1.00  0.00    -0.000 C 
BRANCH  23  24
ATOM     24  C   UNL     1      -2.248  -0.452  27.393  1.00  0.00    -0.000 C 
BRANCH  24  25
ATOM     25  C   UNL     1      -0.875  -1.145  27.445  1.00  0.00    -0.003 C 
ATOM     26  C   UNL     1      -0.877  -2.414  28.296  1.00  0.00     0.004 C 
ENDBRANCH  24  25
ENDBRANCH  23  24
ENDBRANCH  22  23
ENDBRANCH  21  22
ENDBRANCH  20  21
ENDBRANCH  19  20
ENDBRANCH  18  19
ENDBRANCH  17  18
ENDBRANCH  16  17
ENDBRANCH  15  16
ENDBRANCH   1  15
TORSDOF 22
ENDMDL
MODEL 8
REMARK VINA RESULT:    -4.654      4.156     10.697
REMARK INTER + INTRA:         -12.910
REMARK INTER:                 -11.377
REMARK INTRA:                  -1.533
REMARK UNBOUND:                -2.270
REMARK SMILES CCCCCCCCCCCCCCCCCCCCCCCC(=O)[O-]
REMARK SMILES IDX 13 1 14 2 15 3 16 4 17 5 18 6 19 7 20 8 21 9 22 10 23 11
REMARK SMILES IDX 24 12 25 13 26 14 12 15 11 16 10 17 9 18 8 19 7 20 6 21 5 22
REMARK SMILES IDX 4 23 3 24 2 25 1 26
REMARK H PARENT
REMARK Flexibility Score: inf
ROOT
ATOM      1  C   UNL     1      -5.488  -9.690  28.760  1.00  0.00     0.000 C 
ENDROOT
BRANCH   1   2
ATOM      2  C   UNL     1      -6.131  -8.493  29.476  1.00  0.00     0.000 C 
BRANCH   2   3
ATOM      3  C   UNL     1      -6.163  -7.228  28.602  1.00  0.00     0.000 C 
BRANCH   3   4
ATOM      4  C   UNL     1      -5.482  -6.026  29.277  1.00  0.00     0.000 C 
BRANCH   4   5
ATOM      5  C   UNL     1      -5.041  -4.964  28.256  1.00  0.00     0.000 C 
BRANCH   5   6
ATOM      6  C   UNL     1      -5.883  -3.679  28.347  1.00  0.00     0.000 C 
BRANCH   6   7
ATOM      7  C   UNL     1      -5.170  -2.562  29.131  1.00  0.00     0.000 C 
BRANCH   7   8
ATOM      8  C   UNL     1      -4.583  -1.483  28.204  1.00  0.00     0.000 C 
BRANCH   8   9
ATOM      9  C   UNL     1      -4.157  -0.218  28.963  1.00  0.00     0.000 C 
BRANCH   9  10
ATOM     10  C   UNL     1      -2.661   0.093  28.802  1.00  0.00     0.006 C 
BRANCH  10  11
ATOM     11  C   UNL     1      -2.123  -0.474  27.482  1.00  0.00     0.053 C 
BRANCH  11  12
ATOM     12  C   UNL     1      -0.887  -1.293  27.701  1.00  0.00     0.041 C 
ATOM     13  O   UNL     1       0.243  -0.836  27.381  1.00  0.00    -0.550 OA
ATOM     14  O   UNL     1      -0.977  -2.540  28.310  1.00  0.00    -0.550 OA
ENDBRANCH  11  12
ENDBRANCH  10  11
ENDBRANCH   9  10
ENDBRANCH   8   9
ENDBRANCH   7   8
ENDBRANCH   6   7
ENDBRANCH   5   6
ENDBRANCH   4   5
ENDBRANCH   3   4
ENDBRANCH   2   3
ENDBRANCH   1   2
BRANCH   1  15
ATOM     15  C   UNL     1      -4.698 -10.552  29.756  1.00  0.00     0.000 C 
BRANCH  15  16
ATOM     16  C   UNL     1      -4.165 -11.854  29.138  1.00  0.00     0.000 C 
BRANCH  16  17
ATOM     17  C   UNL     1      -2.806 -11.665  28.444  1.00  0.00     0.000 C 
BRANCH  17  18
ATOM     18  C   UNL     1      -2.815 -12.158  26.988  1.00  0.00    -0.000 C 
BRANCH  18  19
ATOM     19  C   UNL     1      -4.068 -11.711  26.198  1.00  0.00    -0.000 C 
BRANCH  19  20
ATOM     20  C   UNL     1      -3.843 -11.746  24.680  1.00  0.00    -0.000 C 
BRANCH  20  21
ATOM     21  C   UNL     1      -3.295 -13.112  24.239  1.00  0.00    -0.000 C 
BRANCH  21  22
ATOM     22  C   UNL     1      -2.071 -12.994  23.312  1.00  0.00    -0.000 C 
BRANCH  22  23
ATOM     23  C   UNL     1      -0.736 -12.718  24.033  1.00  0.00    -0.000 C 
BRANCH  23  24
ATOM     24  C   UNL     1      -0.163 -11.300  23.828  1.00  0.00    -0.000 C 
BRANCH  24  25
ATOM     25  C   UNL     1       1.012 -10.939  24.755  1.00  0.00    -0.003 C 
ATOM     26  C   UNL     1       0.640 -10.979  26.236  1.00  0.00     0.004 C 
ENDBRANCH  24  25
ENDBRANCH  23  24
ENDBRANCH  22  23
ENDBRANCH  21  22
ENDBRANCH  20  21
ENDBRANCH  19  20
ENDBRANCH  18  19
ENDBRANCH  17  18
ENDBRANCH  16  17
ENDBRANCH  15  16
ENDBRANCH   1  15
TORSDOF 22
ENDMDL
MODEL 9
REMARK VINA RESULT:    -4.653      4.362     11.307
REMARK INTER + INTRA:         -12.906
REMARK INTER:                 -11.764
REMARK INTRA:                  -1.142
REMARK UNBOUND:                -2.270
REMARK SMILES CCCCCCCCCCCCCCCCCCCCCCCC(=O)[O-]
REMARK SMILES IDX 13 1 14 2 15 3 16 4 17 5 18 6 19 7 20 8 21 9 22 10 23 11
REMARK SMILES IDX 24 12 25 13 26 14 12 15 11 16 10 17 9 18 8 19 7 20 6 21 5 22
REMARK SMILES IDX 4 23 3 24 2 25 1 26
REMARK H PARENT
REMARK Flexibility Score: inf
ROOT
ATOM      1  C   UNL     1      -5.451  -9.647  28.916  1.00  0.00     0.000 C 
ENDROOT
BRANCH   1   2
ATOM      2  C   UNL     1      -6.145  -8.431  29.547  1.00  0.00     0.000 C 
BRANCH   2   3
ATOM      3  C   UNL     1      -6.160  -7.208  28.616  1.00  0.00     0.000 C 
BRANCH   3   4
ATOM      4  C   UNL     1      -5.503  -5.972  29.251  1.00  0.00     0.000 C 
BRANCH   4   5
ATOM      5  C   UNL     1      -5.032  -4.960  28.194  1.00  0.00     0.000 C 
BRANCH   5   6
ATOM      6  C   UNL     1      -5.849  -3.656  28.225  1.00  0.00     0.000 C 
BRANCH   6   7
ATOM      7  C   UNL     1      -5.407  -2.711  29.357  1.00  0.00     0.000 C 
BRANCH   7   8
ATOM      8  C   UNL     1      -3.974  -2.188  29.152  1.00  0.00     0.000 C 
BRANCH   8   9
ATOM      9  C   UNL     1      -3.882  -1.128  28.043  1.00  0.00     0.000 C 
BRANCH   9  10
ATOM     10  C   UNL     1      -2.642  -0.234  28.181  1.00  0.00     0.006 C 
BRANCH  10  11
ATOM     11  C   UNL     1      -1.657  -0.484  27.031  1.00  0.00     0.053 C 
BRANCH  11  12
ATOM     12  C   UNL     1      -0.451  -1.240  27.498  1.00  0.00     0.041 C 
ATOM     13  O   UNL     1       0.319  -1.788  26.664  1.00  0.00    -0.550 OA
ATOM     14  O   UNL     1      -0.144  -1.295  28.854  1.00  0.00    -0.550 OA
ENDBRANCH  11  12
ENDBRANCH  10  11
ENDBRANCH   9  10
ENDBRANCH   8   9
ENDBRANCH   7   8
ENDBRANCH   6   7
ENDBRANCH   5   6
ENDBRANCH   4   5
ENDBRANCH   3   4
ENDBRANCH   2   3
ENDBRANCH   1   2
BRANCH   1  15
ATOM     15  C   UNL     1      -4.781 -10.507  29.999  1.00  0.00     0.000 C 
BRANCH  15  16
ATOM     16  C   UNL     1      -4.175 -11.807  29.449  1.00  0.00     0.000 C 
BRANCH  16  17
ATOM     17  C   UNL     1      -3.104 -11.551  28.375  1.00  0.00     0.000 C 
BRANCH  17  18
ATOM     18  C   UNL     1      -3.389 -12.308  27.068  1.00  0.00    -0.000 C 
BRANCH  18  19
ATOM     19  C   UNL     1      -4.610 -11.756  26.295  1.00  0.00    -0.000 C 
BRANCH  19  20
ATOM     20  C   UNL     1      -4.254 -11.351  24.857  1.00  0.00    -0.000 C 
BRANCH  20  21
ATOM     21  C   UNL     1      -2.991 -12.085  24.378  1.00  0.00    -0.000 C 
BRANCH  21  22
ATOM     22  C   UNL     1      -3.301 -13.219  23.384  1.00  0.00    -0.000 C 
BRANCH  22  23
ATOM     23  C   UNL     1      -2.215 -13.461  22.316  1.00  0.00    -0.000 C 
BRANCH  23  24
ATOM     24  C   UNL     1      -2.575 -14.509  21.242  1.00  0.00    -0.000 C 
BRANCH  24  25
ATOM     25  C   UNL     1      -4.069 -14.575  20.880  1.00  0.00    -0.003 C 
ATOM     26  C   UNL     1      -4.336 -14.332  19.395  1.00  0.00     0.004 C 
ENDBRANCH  24  25
ENDBRANCH  23  24
ENDBRANCH  22  23
ENDBRANCH  21  22
ENDBRANCH  20  21
ENDBRANCH  19  20
ENDBRANCH  18  19
ENDBRANCH  17  18
ENDBRANCH  16  17
ENDBRANCH  15  16
ENDBRANCH   1  15
TORSDOF 22
ENDMDL
