MODEL 1
REMARK VINA RESULT:    -3.446      0.000      0.000
REMARK INTER + INTRA:          -5.167
REMARK INTER:                  -5.058
REMARK INTRA:                  -0.110
REMARK UNBOUND:                -0.110
REMARK SMILES O=c1c(O[C@H]2O[C@H](CO)[C@@H](O)[C@@H](O)[C@H]2O)c(-c2ccc(O)c(O)c2)oc2cc(O)cc(O)c12
REMARK SMILES IDX 4 1 3 2 16 3 25 4 2 5 26 6 1 7 33 8 27 9 31 10 28 11 30 12
REMARK SMILES IDX 17 13 18 14 19 15 20 16 24 17 22 18 21 19 23 21 32 23 29 25
REMARK SMILES IDX 5 27 14 28 6 29 12 30 7 31 10 32 15 33 13 35 8 37 9 38 11 40
REMARK H PARENT 21 20 23 22 32 24 29 26 15 34 13 36 9 39 11 41
REMARK Flexibility Score: inf
ROOT
ATOM      1  O   UNL     1      44.317   9.371  22.183  1.00  0.00    -0.454 OA
ENDROOT
BRANCH   1   2
ATOM      2  C   UNL     1      44.638   9.309  20.821  1.00  0.00     0.214 A 
ATOM      3  C   UNL     1      45.741   8.568  20.358  1.00  0.00     0.180 A 
ATOM      4  O   UNL     1      45.963   8.470  19.054  1.00  0.00    -0.452 OA
ATOM      5  C   UNL     1      43.842   9.993  19.897  1.00  0.00     0.239 A 
ATOM      6  C   UNL     1      45.205   9.060  18.135  1.00  0.00     0.146 A 
ATOM      7  O   UNL     1      42.933  10.744  20.336  1.00  0.00    -0.285 OA
ATOM      8  C   UNL     1      44.080   9.842  18.510  1.00  0.00     0.111 A 
ATOM      9  C   UNL     1      45.547   8.907  16.790  1.00  0.00     0.094 A 
ATOM     10  C   UNL     1      43.282  10.425  17.479  1.00  0.00     0.134 A 
ATOM     11  C   UNL     1      44.790   9.524  15.793  1.00  0.00     0.123 A 
ATOM     12  C   UNL     1      43.670  10.279  16.141  1.00  0.00     0.093 A 
BRANCH   3  13
ATOM     13  C   UNL     1      46.695   7.910  21.280  1.00  0.00     0.025 A 
ATOM     14  C   UNL     1      46.746   6.508  21.344  1.00  0.00     0.016 A 
ATOM     15  C   UNL     1      47.666   5.871  22.181  1.00  0.00     0.051 A 
ATOM     16  C   UNL     1      48.559   6.625  22.955  1.00  0.00     0.157 A 
ATOM     17  C   UNL     1      47.610   8.663  22.038  1.00  0.00     0.062 A 
ATOM     18  C   UNL     1      48.532   8.028  22.877  1.00  0.00     0.158 A 
BRANCH  16  19
ATOM     19  O   UNL     1      49.468   5.988  23.796  1.00  0.00    -0.504 OA
ATOM     20  H   UNL     1      49.709   6.367  24.705  1.00  0.00     0.293 HD
ENDBRANCH  16  19
BRANCH  18  21
ATOM     21  O   UNL     1      49.416   8.808  23.623  1.00  0.00    -0.504 OA
ATOM     22  H   UNL     1      50.012   9.505  23.193  1.00  0.00     0.293 HD
ENDBRANCH  18  21
ENDBRANCH   3  13
BRANCH  10  23
ATOM     23  O   UNL     1      42.091  11.125  17.707  1.00  0.00    -0.507 OA
ATOM     24  H   UNL     1      41.306  11.158  17.070  1.00  0.00     0.293 HD
ENDBRANCH  10  23
BRANCH  11  25
ATOM     25  O   UNL     1      45.139   9.390  14.451  1.00  0.00    -0.508 OA
ATOM     26  H   UNL     1      44.486   9.024  13.768  1.00  0.00     0.293 HD
ENDBRANCH  11  25
ENDBRANCH   1   2
BRANCH   1  27
ATOM     27  C   UNL     1      44.120  10.614  22.872  1.00  0.00     0.339 C 
ATOM     28  C   UNL     1      45.272  10.889  23.864  1.00  0.00     0.214 C 
ATOM     29  O   UNL     1      42.863  10.635  23.528  1.00  0.00    -0.332 OA
ATOM     30  C   UNL     1      45.236   9.893  25.034  1.00  0.00     0.180 C 
ATOM     31  C   UNL     1      42.773   9.622  24.518  1.00  0.00     0.179 C 
ATOM     32  C   UNL     1      43.817   9.851  25.638  1.00  0.00     0.177 C 
BRANCH  28  33
ATOM     33  O   UNL     1      46.516  10.815  23.215  1.00  0.00    -0.384 OA
ATOM     34  H   UNL     1      46.628   9.872  22.921  1.00  0.00     0.211 HD
ENDBRANCH  28  33
BRANCH  30  35
ATOM     35  O   UNL     1      45.620   8.615  24.589  1.00  0.00    -0.387 OA
ATOM     36  H   UNL     1      44.798   8.157  24.272  1.00  0.00     0.211 HD
ENDBRANCH  30  35
BRANCH  31  37
ATOM     37  C   UNL     1      41.342   9.612  25.074  1.00  0.00     0.191 C 
BRANCH  37  38
ATOM     38  O   UNL     1      40.508  10.459  24.327  1.00  0.00    -0.394 OA
ATOM     39  H   UNL     1      40.960  10.612  23.455  1.00  0.00     0.210 HD
ENDBRANCH  37  38
ENDBRANCH  31  37
BRANCH  32  40
ATOM     40  O   UNL     1      43.722   8.829  26.598  1.00  0.00    -0.387 OA
ATOM     41  H   UNL     1      43.712   9.272  27.487  1.00  0.00     0.211 HD
ENDBRANCH  32  40
ENDBRANCH   1  27
TORSDOF 12
ENDMDL
MODEL 2
REMARK VINA RESULT:    -3.352      2.332      7.434
REMARK INTER + INTRA:          -5.029
REMARK INTER:                  -4.742
REMARK INTRA:                  -0.288
REMARK UNBOUND:                -0.110
REMARK SMILES O=c1c(O[C@H]2O[C@H](CO)[C@@H](O)[C@@H](O)[C@H]2O)c(-c2ccc(O)c(O)c2)oc2cc(O)cc(O)c12
REMARK SMILES IDX 4 1 3 2 16 3 25 4 2 5 26 6 1 7 33 8 27 9 31 10 28 11 30 12
REMARK SMILES IDX 17 13 18 14 19 15 20 16 24 17 22 18 21 19 23 21 32 23 29 25
REMARK SMILES IDX 5 27 14 28 6 29 12 30 7 31 10 32 15 33 13 35 8 37 9 38 11 40
REMARK H PARENT 21 20 23 22 32 24 29 26 15 34 13 36 9 39 11 41
REMARK Flexibility Score: inf
ROOT
ATOM      1  O   UNL     1      44.385   9.240  18.726  1.00  0.00    -0.454 OA
ENDROOT
BRANCH   1   2
ATOM      2  C   UNL     1      45.301   8.580  19.554  1.00  0.00     0.214 A 
ATOM      3  C   UNL     1      46.103   7.529  19.074  1.00  0.00     0.180 A 
ATOM      4  O   UNL     1      47.014   6.984  19.871  1.00  0.00    -0.452 OA
ATOM      5  C   UNL     1      45.427   8.977  20.890  1.00  0.00     0.239 A 
ATOM      6  C   UNL     1      47.206   7.361  21.130  1.00  0.00     0.146 A 
ATOM      7  O   UNL     1      44.622   9.836  21.334  1.00  0.00    -0.285 OA
ATOM      8  C   UNL     1      46.431   8.403  21.706  1.00  0.00     0.111 A 
ATOM      9  C   UNL     1      48.179   6.700  21.884  1.00  0.00     0.094 A 
ATOM     10  C   UNL     1      46.704   8.790  23.053  1.00  0.00     0.134 A 
ATOM     11  C   UNL     1      48.401   7.052  23.216  1.00  0.00     0.123 A 
ATOM     12  C   UNL     1      47.664   8.087  23.792  1.00  0.00     0.093 A 
BRANCH   3  13
ATOM     13  C   UNL     1      45.950   6.977  17.709  1.00  0.00     0.025 A 
ATOM     14  C   UNL     1      47.064   6.432  17.050  1.00  0.00     0.016 A 
ATOM     15  C   UNL     1      46.929   5.873  15.776  1.00  0.00     0.051 A 
ATOM     16  C   UNL     1      45.676   5.837  15.149  1.00  0.00     0.157 A 
ATOM     17  C   UNL     1      44.690   6.914  17.088  1.00  0.00     0.062 A 
ATOM     18  C   UNL     1      44.551   6.355  15.812  1.00  0.00     0.158 A 
BRANCH  16  19
ATOM     19  O   UNL     1      45.547   5.289  13.875  1.00  0.00    -0.504 OA
ATOM     20  H   UNL     1      46.354   4.989  13.339  1.00  0.00     0.293 HD
ENDBRANCH  16  19
BRANCH  18  21
ATOM     21  O   UNL     1      43.288   6.321  15.222  1.00  0.00    -0.504 OA
ATOM     22  H   UNL     1      42.906   7.116  14.723  1.00  0.00     0.293 HD
ENDBRANCH  18  21
ENDBRANCH   3  13
BRANCH  10  23
ATOM     23  O   UNL     1      46.090   9.869  23.702  1.00  0.00    -0.507 OA
ATOM     24  H   UNL     1      46.469  10.805  23.757  1.00  0.00     0.293 HD
ENDBRANCH  10  23
BRANCH  11  25
ATOM     25  O   UNL     1      49.356   6.382  23.977  1.00  0.00    -0.508 OA
ATOM     26  H   UNL     1      49.996   5.717  23.558  1.00  0.00     0.293 HD
ENDBRANCH  11  25
ENDBRANCH   1   2
BRANCH   1  27
ATOM     27  C   UNL     1      44.383  10.665  18.561  1.00  0.00     0.339 C 
ATOM     28  C   UNL     1      43.260  11.112  17.599  1.00  0.00     0.214 C 
ATOM     29  O   UNL     1      45.650  11.125  18.120  1.00  0.00    -0.332 OA
ATOM     30  C   UNL     1      43.554  10.649  16.162  1.00  0.00     0.180 C 
ATOM     31  C   UNL     1      45.989  10.586  16.851  1.00  0.00     0.179 C 
ATOM     32  C   UNL     1      44.987  11.057  15.767  1.00  0.00     0.177 C 
BRANCH  28  33
ATOM     33  O   UNL     1      42.017  10.608  18.016  1.00  0.00    -0.384 OA
ATOM     34  H   UNL     1      41.376  10.782  17.277  1.00  0.00     0.211 HD
ENDBRANCH  28  33
BRANCH  30  35
ATOM     35  O   UNL     1      43.393   9.254  16.066  1.00  0.00    -0.387 OA
ATOM     36  H   UNL     1      44.264   8.881  15.767  1.00  0.00     0.211 HD
ENDBRANCH  30  35
BRANCH  31  37
ATOM     37  C   UNL     1      47.426  11.007  16.512  1.00  0.00     0.191 C 
BRANCH  37  38
ATOM     38  O   UNL     1      47.949  10.216  15.477  1.00  0.00    -0.394 OA
ATOM     39  H   UNL     1      47.458   9.352  15.499  1.00  0.00     0.210 HD
ENDBRANCH  37  38
ENDBRANCH  31  37
BRANCH  32  40
ATOM     40  O   UNL     1      45.331  10.500  14.523  1.00  0.00    -0.387 OA
ATOM     41  H   UNL     1      45.603  11.254  13.938  1.00  0.00     0.211 HD
ENDBRANCH  32  40
ENDBRANCH   1  27
TORSDOF 12
ENDMDL
MODEL 3
REMARK VINA RESULT:    -3.282      2.023      6.933
REMARK INTER + INTRA:          -4.926
REMARK INTER:                  -4.314
REMARK INTRA:                  -0.612
REMARK UNBOUND:                -0.110
REMARK SMILES O=c1c(O[C@H]2O[C@H](CO)[C@@H](O)[C@@H](O)[C@H]2O)c(-c2ccc(O)c(O)c2)oc2cc(O)cc(O)c12
REMARK SMILES IDX 4 1 3 2 16 3 25 4 2 5 26 6 1 7 33 8 27 9 31 10 28 11 30 12
REMARK SMILES IDX 17 13 18 14 19 15 20 16 24 17 22 18 21 19 23 21 32 23 29 25
REMARK SMILES IDX 5 27 14 28 6 29 12 30 7 31 10 32 15 33 13 35 8 37 9 38 11 40
REMARK H PARENT 21 20 23 22 32 24 29 26 15 34 13 36 9 39 11 41
REMARK Flexibility Score: inf
ROOT
ATOM      1  O   UNL     1      44.236   9.362  19.090  1.00  0.00    -0.454 OA
ENDROOT
BRANCH   1   2
ATOM      2  C   UNL     1      44.505   9.014  20.419  1.00  0.00     0.214 A 
ATOM      3  C   UNL     1      45.464   8.038  20.745  1.00  0.00     0.180 A 
ATOM      4  O   UNL     1      45.745   7.795  22.019  1.00  0.00    -0.452 OA
ATOM      5  C   UNL     1      43.810   9.656  21.449  1.00  0.00     0.239 A 
ATOM      6  C   UNL     1      45.149   8.415  23.031  1.00  0.00     0.146 A 
ATOM      7  O   UNL     1      42.876  10.439  21.140  1.00  0.00    -0.285 OA
ATOM      8  C   UNL     1      44.156   9.404  22.799  1.00  0.00     0.111 A 
ATOM      9  C   UNL     1      45.508   8.062  24.334  1.00  0.00     0.094 A 
ATOM     10  C   UNL     1      43.573  10.061  23.924  1.00  0.00     0.134 A 
ATOM     11  C   UNL     1      44.893   8.674  25.428  1.00  0.00     0.123 A 
ATOM     12  C   UNL     1      43.932   9.663  25.218  1.00  0.00     0.093 A 
BRANCH   3  13
ATOM     13  C   UNL     1      46.159   7.236  19.712  1.00  0.00     0.025 A 
ATOM     14  C   UNL     1      46.747   6.010  20.062  1.00  0.00     0.016 A 
ATOM     15  C   UNL     1      47.374   5.223  19.091  1.00  0.00     0.051 A 
ATOM     16  C   UNL     1      47.409   5.644  17.755  1.00  0.00     0.157 A 
ATOM     17  C   UNL     1      46.173   7.642  18.365  1.00  0.00     0.062 A 
ATOM     18  C   UNL     1      46.800   6.857  17.391  1.00  0.00     0.158 A 
BRANCH  16  19
ATOM     19  O   UNL     1      48.043   4.863  16.792  1.00  0.00    -0.504 OA
ATOM     20  H   UNL     1      48.660   5.269  16.097  1.00  0.00     0.293 HD
ENDBRANCH  16  19
BRANCH  18  21
ATOM     21  O   UNL     1      46.804   7.297  16.067  1.00  0.00    -0.504 OA
ATOM     22  H   UNL     1      47.640   7.273  15.496  1.00  0.00     0.293 HD
ENDBRANCH  18  21
ENDBRANCH   3  13
BRANCH  10  23
ATOM     23  O   UNL     1      42.666  11.125  23.832  1.00  0.00    -0.507 OA
ATOM     24  H   UNL     1      41.660  11.032  23.842  1.00  0.00     0.293 HD
ENDBRANCH  10  23
BRANCH  11  25
ATOM     25  O   UNL     1      45.235   8.312  26.728  1.00  0.00    -0.508 OA
ATOM     26  H   UNL     1      44.530   8.054  27.410  1.00  0.00     0.293 HD
ENDBRANCH  11  25
ENDBRANCH   1   2
BRANCH   1  27
ATOM     27  C   UNL     1      44.217  10.724  18.638  1.00  0.00     0.339 C 
ATOM     28  C   UNL     1      43.149  10.932  17.541  1.00  0.00     0.214 C 
ATOM     29  O   UNL     1      45.500  11.125  18.187  1.00  0.00    -0.332 OA
ATOM     30  C   UNL     1      43.542  10.196  16.249  1.00  0.00     0.180 C 
ATOM     31  C   UNL     1      45.929  10.351  17.076  1.00  0.00     0.179 C 
ATOM     32  C   UNL     1      44.990  10.561  15.863  1.00  0.00     0.177 C 
BRANCH  28  33
ATOM     33  O   UNL     1      41.892  10.483  17.979  1.00  0.00    -0.384 OA
ATOM     34  H   UNL     1      42.053   9.658  18.509  1.00  0.00     0.211 HD
ENDBRANCH  28  33
BRANCH  30  35
ATOM     35  O   UNL     1      43.415   8.807  16.429  1.00  0.00    -0.387 OA
ATOM     36  H   UNL     1      44.275   8.397  16.151  1.00  0.00     0.211 HD
ENDBRANCH  30  35
BRANCH  31  37
ATOM     37  C   UNL     1      47.377  10.741  16.743  1.00  0.00     0.191 C 
BRANCH  37  38
ATOM     38  O   UNL     1      47.930   9.856  15.804  1.00  0.00    -0.394 OA
ATOM     39  H   UNL     1      48.558  10.386  15.244  1.00  0.00     0.210 HD
ENDBRANCH  37  38
ENDBRANCH  31  37
BRANCH  32  40
ATOM     40  O   UNL     1      45.423   9.775  14.781  1.00  0.00    -0.387 OA
ATOM     41  H   UNL     1      46.414   9.829  14.767  1.00  0.00     0.211 HD
ENDBRANCH  32  40
ENDBRANCH   1  27
TORSDOF 12
ENDMDL
MODEL 4
REMARK VINA RESULT:    -2.335      2.638      5.969
REMARK INTER + INTRA:          -3.537
REMARK INTER:                  -6.915
REMARK INTRA:                   3.378
REMARK UNBOUND:                -0.110
REMARK SMILES O=c1c(O[C@H]2O[C@H](CO)[C@@H](O)[C@@H](O)[C@H]2O)c(-c2ccc(O)c(O)c2)oc2cc(O)cc(O)c12
REMARK SMILES IDX 4 1 3 2 16 3 25 4 2 5 26 6 1 7 33 8 27 9 31 10 28 11 30 12
REMARK SMILES IDX 17 13 18 14 19 15 20 16 24 17 22 18 21 19 23 21 32 23 29 25
REMARK SMILES IDX 5 27 14 28 6 29 12 30 7 31 10 32 15 33 13 35 8 37 9 38 11 40
REMARK H PARENT 21 20 23 22 32 24 29 26 15 34 13 36 9 39 11 41
REMARK Flexibility Score: inf
ROOT
ATOM      1  O   UNL     1      44.315   8.476  18.659  1.00  0.00    -0.454 OA
ENDROOT
BRANCH   1   2
ATOM      2  C   UNL     1      45.220   7.622  18.016  1.00  0.00     0.214 A 
ATOM      3  C   UNL     1      46.324   7.075  18.695  1.00  0.00     0.180 A 
ATOM      4  O   UNL     1      47.111   6.208  18.071  1.00  0.00    -0.452 OA
ATOM      5  C   UNL     1      45.019   7.299  16.670  1.00  0.00     0.239 A 
ATOM      6  C   UNL     1      46.932   5.832  16.810  1.00  0.00     0.146 A 
ATOM      7  O   UNL     1      44.098   7.888  16.048  1.00  0.00    -0.285 OA
ATOM      8  C   UNL     1      45.854   6.345  16.041  1.00  0.00     0.111 A 
ATOM      9  C   UNL     1      47.839   4.929  16.248  1.00  0.00     0.094 A 
ATOM     10  C   UNL     1      45.690   5.879  14.701  1.00  0.00     0.134 A 
ATOM     11  C   UNL     1      47.699   4.521  14.920  1.00  0.00     0.123 A 
ATOM     12  C   UNL     1      46.633   4.998  14.157  1.00  0.00     0.093 A 
BRANCH   3  13
ATOM     13  C   UNL     1      46.667   7.456  20.084  1.00  0.00     0.025 A 
ATOM     14  C   UNL     1      47.512   6.630  20.843  1.00  0.00     0.016 A 
ATOM     15  C   UNL     1      47.875   6.994  22.142  1.00  0.00     0.051 A 
ATOM     16  C   UNL     1      47.411   8.195  22.697  1.00  0.00     0.157 A 
ATOM     17  C   UNL     1      46.225   8.673  20.634  1.00  0.00     0.062 A 
ATOM     18  C   UNL     1      46.587   9.040  21.935  1.00  0.00     0.158 A 
BRANCH  16  19
ATOM     19  O   UNL     1      47.767   8.549  23.996  1.00  0.00    -0.504 OA
ATOM     20  H   UNL     1      47.987   9.507  24.246  1.00  0.00     0.293 HD
ENDBRANCH  16  19
BRANCH  18  21
ATOM     21  O   UNL     1      46.121  10.248  22.451  1.00  0.00    -0.504 OA
ATOM     22  H   UNL     1      45.168  10.563  22.307  1.00  0.00     0.293 HD
ENDBRANCH  18  21
ENDBRANCH   3  13
BRANCH  10  23
ATOM     23  O   UNL     1      44.612   6.220  13.875  1.00  0.00    -0.507 OA
ATOM     24  H   UNL     1      44.420   7.149  13.525  1.00  0.00     0.293 HD
ENDBRANCH  10  23
BRANCH  11  25
ATOM     25  O   UNL     1      48.612   3.636  14.350  1.00  0.00    -0.508 OA
ATOM     26  H   UNL     1      49.148   2.989  14.918  1.00  0.00     0.293 HD
ENDBRANCH  11  25
ENDBRANCH   1   2
BRANCH   1  27
ATOM     27  C   UNL     1      44.621   9.847  18.949  1.00  0.00     0.339 C 
ATOM     28  C   UNL     1      43.458  10.777  18.539  1.00  0.00     0.214 C 
ATOM     29  O   UNL     1      45.834  10.237  18.324  1.00  0.00    -0.332 OA
ATOM     30  C   UNL     1      43.308  10.825  17.010  1.00  0.00     0.180 C 
ATOM     31  C   UNL     1      45.745  10.149  16.910  1.00  0.00     0.179 C 
ATOM     32  C   UNL     1      44.675  11.125  16.363  1.00  0.00     0.177 C 
BRANCH  28  33
ATOM     33  O   UNL     1      42.253  10.352  19.122  1.00  0.00    -0.384 OA
ATOM     34  H   UNL     1      42.357  10.460  20.104  1.00  0.00     0.211 HD
ENDBRANCH  28  33
BRANCH  30  35
ATOM     35  O   UNL     1      42.797   9.602  16.539  1.00  0.00    -0.387 OA
ATOM     36  H   UNL     1      41.912   9.793  16.132  1.00  0.00     0.211 HD
ENDBRANCH  30  35
BRANCH  31  37
ATOM     37  C   UNL     1      47.131  10.440  16.317  1.00  0.00     0.191 C 
BRANCH  37  38
ATOM     38  O   UNL     1      47.776   9.250  15.944  1.00  0.00    -0.394 OA
ATOM     39  H   UNL     1      48.581   9.510  15.422  1.00  0.00     0.210 HD
ENDBRANCH  37  38
ENDBRANCH  31  37
BRANCH  32  40
ATOM     40  O   UNL     1      44.593  11.010  14.964  1.00  0.00    -0.387 OA
ATOM     41  H   UNL     1      44.735  11.920  14.594  1.00  0.00     0.211 HD
ENDBRANCH  32  40
ENDBRANCH   1  27
TORSDOF 12
ENDMDL
MODEL 5
REMARK VINA RESULT:    -0.892      2.381      8.058
REMARK INTER + INTRA:          -1.418
REMARK INTER:                  -1.318
REMARK INTRA:                  -0.101
REMARK UNBOUND:                -0.110
REMARK SMILES O=c1c(O[C@H]2O[C@H](CO)[C@@H](O)[C@@H](O)[C@H]2O)c(-c2ccc(O)c(O)c2)oc2cc(O)cc(O)c12
REMARK SMILES IDX 4 1 3 2 16 3 25 4 2 5 26 6 1 7 33 8 27 9 31 10 28 11 30 12
REMARK SMILES IDX 17 13 18 14 19 15 20 16 24 17 22 18 21 19 23 21 32 23 29 25
REMARK SMILES IDX 5 27 14 28 6 29 12 30 7 31 10 32 15 33 13 35 8 37 9 38 11 40
REMARK H PARENT 21 20 23 22 32 24 29 26 15 34 13 36 9 39 11 41
REMARK Flexibility Score: inf
ROOT
ATOM      1  O   UNL     1      47.080   7.126  18.236  1.00  0.00    -0.454 OA
ENDROOT
BRANCH   1   2
ATOM      2  C   UNL     1      46.623   7.898  19.311  1.00  0.00     0.214 A 
ATOM      3  C   UNL     1      45.888   9.080  19.109  1.00  0.00     0.180 A 
ATOM      4  O   UNL     1      45.407   9.739  20.155  1.00  0.00    -0.452 OA
ATOM      5  C   UNL     1      46.899   7.483  20.618  1.00  0.00     0.239 A 
ATOM      6  C   UNL     1      45.599   9.358  21.413  1.00  0.00     0.146 A 
ATOM      7  O   UNL     1      47.656   6.492  20.781  1.00  0.00    -0.285 OA
ATOM      8  C   UNL     1      46.344   8.186  21.714  1.00  0.00     0.111 A 
ATOM      9  C   UNL     1      45.065  10.143  22.438  1.00  0.00     0.094 A 
ATOM     10  C   UNL     1      46.489   7.805  23.083  1.00  0.00     0.134 A 
ATOM     11  C   UNL     1      45.258   9.789  23.774  1.00  0.00     0.123 A 
ATOM     12  C   UNL     1      45.968   8.630  24.088  1.00  0.00     0.093 A 
BRANCH   3  13
ATOM     13  C   UNL     1      45.652   9.644  17.760  1.00  0.00     0.025 A 
ATOM     14  C   UNL     1      46.683   9.619  16.806  1.00  0.00     0.016 A 
ATOM     15  C   UNL     1      46.465  10.112  15.517  1.00  0.00     0.051 A 
ATOM     16  C   UNL     1      45.211  10.625  15.158  1.00  0.00     0.157 A 
ATOM     17  C   UNL     1      44.388  10.134  17.388  1.00  0.00     0.062 A 
ATOM     18  C   UNL     1      44.167  10.629  16.098  1.00  0.00     0.158 A 
BRANCH  16  19
ATOM     19  O   UNL     1      45.000  11.125  13.875  1.00  0.00    -0.504 OA
ATOM     20  H   UNL     1      44.369  11.900  13.702  1.00  0.00     0.293 HD
ENDBRANCH  16  19
BRANCH  18  21
ATOM     21  O   UNL     1      42.903  11.118  15.769  1.00  0.00    -0.504 OA
ATOM     22  H   UNL     1      42.121  10.503  15.578  1.00  0.00     0.293 HD
ENDBRANCH  18  21
ENDBRANCH   3  13
BRANCH  10  23
ATOM     23  O   UNL     1      47.103   6.621  23.509  1.00  0.00    -0.507 OA
ATOM     24  H   UNL     1      46.664   5.710  23.518  1.00  0.00     0.293 HD
ENDBRANCH  10  23
BRANCH  11  25
ATOM     25  O   UNL     1      44.743  10.579  24.799  1.00  0.00    -0.508 OA
ATOM     26  H   UNL     1      44.106  11.344  24.609  1.00  0.00     0.293 HD
ENDBRANCH  11  25
ENDBRANCH   1   2
BRANCH   1  27
ATOM     27  C   UNL     1      46.475   5.876  17.873  1.00  0.00     0.339 C 
ATOM     28  C   UNL     1      47.279   5.171  16.759  1.00  0.00     0.214 C 
ATOM     29  O   UNL     1      45.122   6.062  17.490  1.00  0.00    -0.332 OA
ATOM     30  C   UNL     1      47.175   5.946  15.435  1.00  0.00     0.180 C 
ATOM     31  C   UNL     1      45.012   6.895  16.345  1.00  0.00     0.179 C 
ATOM     32  C   UNL     1      45.694   6.239  15.120  1.00  0.00     0.177 C 
BRANCH  28  33
ATOM     33  O   UNL     1      48.628   5.039  17.127  1.00  0.00    -0.384 OA
ATOM     34  H   UNL     1      48.759   4.091  17.396  1.00  0.00     0.211 HD
ENDBRANCH  28  33
BRANCH  30  35
ATOM     35  O   UNL     1      47.908   7.144  15.521  1.00  0.00    -0.387 OA
ATOM     36  H   UNL     1      48.834   6.900  15.784  1.00  0.00     0.211 HD
ENDBRANCH  30  35
BRANCH  31  37
ATOM     37  C   UNL     1      43.524   7.169  16.084  1.00  0.00     0.191 C 
BRANCH  37  38
ATOM     38  O   UNL     1      43.045   6.372  15.033  1.00  0.00    -0.394 OA
ATOM     39  H   UNL     1      43.642   5.578  14.977  1.00  0.00     0.210 HD
ENDBRANCH  37  38
ENDBRANCH  31  37
BRANCH  32  40
ATOM     40  O   UNL     1      45.588   7.086  14.003  1.00  0.00    -0.387 OA
ATOM     41  H   UNL     1      45.726   6.519  13.200  1.00  0.00     0.211 HD
ENDBRANCH  32  40
ENDBRANCH   1  27
TORSDOF 12
ENDMDL
MODEL 6
REMARK VINA RESULT:    -0.798      1.601      2.097
REMARK INTER + INTRA:          -1.281
REMARK INTER:                  -2.569
REMARK INTRA:                   1.288
REMARK UNBOUND:                -0.110
REMARK SMILES O=c1c(O[C@H]2O[C@H](CO)[C@@H](O)[C@@H](O)[C@H]2O)c(-c2ccc(O)c(O)c2)oc2cc(O)cc(O)c12
REMARK SMILES IDX 4 1 3 2 16 3 25 4 2 5 26 6 1 7 33 8 27 9 31 10 28 11 30 12
REMARK SMILES IDX 17 13 18 14 19 15 20 16 24 17 22 18 21 19 23 21 32 23 29 25
REMARK SMILES IDX 5 27 14 28 6 29 12 30 7 31 10 32 15 33 13 35 8 37 9 38 11 40
REMARK H PARENT 21 20 23 22 32 24 29 26 15 34 13 36 9 39 11 41
REMARK Flexibility Score: inf
ROOT
ATOM      1  O   UNL     1      44.736   8.688  21.067  1.00  0.00    -0.454 OA
ENDROOT
BRANCH   1   2
ATOM      2  C   UNL     1      45.257   8.245  19.846  1.00  0.00     0.214 A 
ATOM      3  C   UNL     1      46.411   7.442  19.786  1.00  0.00     0.180 A 
ATOM      4  O   UNL     1      46.826   6.978  18.614  1.00  0.00    -0.452 OA
ATOM      5  C   UNL     1      44.614   8.603  18.656  1.00  0.00     0.239 A 
ATOM      6  C   UNL     1      46.220   7.248  17.463  1.00  0.00     0.146 A 
ATOM      7  O   UNL     1      43.657   9.416  18.718  1.00  0.00    -0.285 OA
ATOM      8  C   UNL     1      45.058   8.065  17.424  1.00  0.00     0.111 A 
ATOM      9  C   UNL     1      46.759   6.724  16.286  1.00  0.00     0.094 A 
ATOM     10  C   UNL     1      44.428   8.294  16.163  1.00  0.00     0.134 A 
ATOM     11  C   UNL     1      46.165   6.998  15.053  1.00  0.00     0.123 A 
ATOM     12  C   UNL     1      45.011   7.780  14.998  1.00  0.00     0.093 A 
BRANCH   3  13
ATOM     13  C   UNL     1      47.210   7.115  20.989  1.00  0.00     0.025 A 
ATOM     14  C   UNL     1      47.395   5.772  21.357  1.00  0.00     0.016 A 
ATOM     15  C   UNL     1      48.177   5.444  22.468  1.00  0.00     0.051 A 
ATOM     16  C   UNL     1      48.798   6.452  23.218  1.00  0.00     0.157 A 
ATOM     17  C   UNL     1      47.856   8.121  21.728  1.00  0.00     0.062 A 
ATOM     18  C   UNL     1      48.640   7.797  22.842  1.00  0.00     0.158 A 
BRANCH  16  19
ATOM     19  O   UNL     1      49.568   6.123  24.331  1.00  0.00    -0.504 OA
ATOM     20  H   UNL     1      50.073   5.245  24.389  1.00  0.00     0.293 HD
ENDBRANCH  16  19
BRANCH  18  21
ATOM     21  O   UNL     1      49.255   8.823  23.557  1.00  0.00    -0.504 OA
ATOM     22  H   UNL     1      49.451   8.745  24.548  1.00  0.00     0.293 HD
ENDBRANCH  18  21
ENDBRANCH   3  13
BRANCH  10  23
ATOM     23  O   UNL     1      43.222   8.986  16.000  1.00  0.00    -0.507 OA
ATOM     24  H   UNL     1      42.884   9.364  15.125  1.00  0.00     0.293 HD
ENDBRANCH  10  23
BRANCH  11  25
ATOM     25  O   UNL     1      46.711   6.492  13.875  1.00  0.00    -0.508 OA
ATOM     26  H   UNL     1      47.653   6.727  13.585  1.00  0.00     0.293 HD
ENDBRANCH  11  25
ENDBRANCH   1   2
BRANCH   1  27
ATOM     27  C   UNL     1      44.021   9.926  21.197  1.00  0.00     0.339 C 
ATOM     28  C   UNL     1      44.992  11.125  21.271  1.00  0.00     0.214 C 
ATOM     29  O   UNL     1      43.156   9.895  22.321  1.00  0.00    -0.332 OA
ATOM     30  C   UNL     1      45.787  11.103  22.587  1.00  0.00     0.180 C 
ATOM     31  C   UNL     1      43.880   9.734  23.532  1.00  0.00     0.179 C 
ATOM     32  C   UNL     1      44.820  10.940  23.776  1.00  0.00     0.177 C 
BRANCH  28  33
ATOM     33  O   UNL     1      45.877  11.116  20.181  1.00  0.00    -0.384 OA
ATOM     34  H   UNL     1      46.705  11.575  20.482  1.00  0.00     0.211 HD
ENDBRANCH  28  33
BRANCH  30  35
ATOM     35  O   UNL     1      46.724  10.054  22.565  1.00  0.00    -0.387 OA
ATOM     36  H   UNL     1      46.287   9.265  22.980  1.00  0.00     0.211 HD
ENDBRANCH  30  35
BRANCH  31  37
ATOM     37  C   UNL     1      42.874   9.561  24.679  1.00  0.00     0.191 C 
BRANCH  37  38
ATOM     38  O   UNL     1      41.697   8.945  24.224  1.00  0.00    -0.394 OA
ATOM     39  H   UNL     1      41.041   8.993  24.969  1.00  0.00     0.210 HD
ENDBRANCH  37  38
ENDBRANCH  31  37
BRANCH  32  40
ATOM     40  O   UNL     1      45.537  10.753  24.971  1.00  0.00    -0.387 OA
ATOM     41  H   UNL     1      44.986  11.142  25.699  1.00  0.00     0.211 HD
ENDBRANCH  32  40
ENDBRANCH   1  27
TORSDOF 12
ENDMDL
