MODEL 1
REMARK VINA RESULT:    -4.412      0.000      0.000
REMARK INTER + INTRA:          -8.895
REMARK INTER:                  -7.507
REMARK INTRA:                  -1.388
REMARK UNBOUND:                -1.388
REMARK SMILES CCCCCCCCCCCCCC(=O)[O-]
REMARK SMILES IDX 8 1 9 2 10 3 11 4 12 5 13 6 14 7 15 8 16 9 7 10 6 11 5 12
REMARK SMILES IDX 4 13 3 14 2 15 1 16
REMARK H PARENT
REMARK Flexibility Score: inf
ROOT
ATOM      1  C   UNL     1      14.344  16.945  -1.290  1.00  0.00     0.000 C 
ENDROOT
BRANCH   1   2
ATOM      2  C   UNL     1      13.692  18.001  -0.383  1.00  0.00     0.000 C 
BRANCH   2   3
ATOM      3  C   UNL     1      14.649  18.522   0.699  1.00  0.00     0.000 C 
BRANCH   3   4
ATOM      4  C   UNL     1      15.234  17.365   1.518  1.00  0.00     0.000 C 
BRANCH   4   5
ATOM      5  C   UNL     1      16.702  17.633   1.880  1.00  0.00     0.006 C 
BRANCH   5   6
ATOM      6  C   UNL     1      17.574  17.866   0.640  1.00  0.00     0.053 C 
BRANCH   6   7
ATOM      7  C   UNL     1      18.236  16.604   0.180  1.00  0.00     0.041 C 
ATOM      8  O   UNL     1      19.394  16.314   0.581  1.00  0.00    -0.550 OA
ATOM      9  O   UNL     1      17.588  15.763  -0.716  1.00  0.00    -0.550 OA
ENDBRANCH   6   7
ENDBRANCH   5   6
ENDBRANCH   4   5
ENDBRANCH   3   4
ENDBRANCH   2   3
ENDBRANCH   1   2
BRANCH   1  10
ATOM     10  C   UNL     1      15.024  17.564  -2.524  1.00  0.00     0.000 C 
BRANCH  10  11
ATOM     11  C   UNL     1      14.239  18.752  -3.100  1.00  0.00    -0.000 C 
BRANCH  11  12
ATOM     12  C   UNL     1      13.189  18.318  -4.138  1.00  0.00    -0.000 C 
BRANCH  12  13
ATOM     13  C   UNL     1      13.571  17.010  -4.852  1.00  0.00    -0.000 C 
BRANCH  13  14
ATOM     14  C   UNL     1      12.441  15.966  -4.815  1.00  0.00    -0.000 C 
BRANCH  14  15
ATOM     15  C   UNL     1      11.662  15.989  -3.491  1.00  0.00    -0.003 C 
ATOM     16  C   UNL     1      10.209  16.431  -3.664  1.00  0.00     0.004 C 
ENDBRANCH  14  15
ENDBRANCH  13  14
ENDBRANCH  12  13
ENDBRANCH  11  12
ENDBRANCH  10  11
ENDBRANCH   1  10
TORSDOF 12
ENDMDL
MODEL 2
REMARK VINA RESULT:    -4.371     13.521     14.868
REMARK INTER + INTRA:          -8.826
REMARK INTER:                  -7.240
REMARK INTRA:                  -1.585
REMARK UNBOUND:                -1.388
REMARK SMILES CCCCCCCCCCCCCC(=O)[O-]
REMARK SMILES IDX 8 1 9 2 10 3 11 4 12 5 13 6 14 7 15 8 16 9 7 10 6 11 5 12
REMARK SMILES IDX 4 13 3 14 2 15 1 16
REMARK H PARENT
REMARK Flexibility Score: inf
ROOT
ATOM      1  C   UNL     1      14.104   3.225   1.928  1.00  0.00     0.000 C 
ENDROOT
BRANCH   1   2
ATOM      2  C   UNL     1      13.466   4.593   1.640  1.00  0.00     0.000 C 
BRANCH   2   3
ATOM      3  C   UNL     1      11.955   4.497   1.381  1.00  0.00     0.000 C 
BRANCH   3   4
ATOM      4  C   UNL     1      11.623   3.280   0.509  1.00  0.00     0.000 C 
BRANCH   4   5
ATOM      5  C   UNL     1      10.891   3.704  -0.773  1.00  0.00     0.006 C 
BRANCH   5   6
ATOM      6  C   UNL     1       9.507   4.301  -0.481  1.00  0.00     0.053 C 
BRANCH   6   7
ATOM      7  C   UNL     1       9.356   5.669  -1.073  1.00  0.00     0.041 C 
ATOM      8  O   UNL     1       9.634   5.868  -2.285  1.00  0.00    -0.550 OA
ATOM      9  O   UNL     1       8.938   6.730  -0.279  1.00  0.00    -0.550 OA
ENDBRANCH   6   7
ENDBRANCH   5   6
ENDBRANCH   4   5
ENDBRANCH   3   4
ENDBRANCH   2   3
ENDBRANCH   1   2
BRANCH   1  10
ATOM     10  C   UNL     1      15.358   2.966   1.076  1.00  0.00     0.000 C 
BRANCH  10  11
ATOM     11  C   UNL     1      15.491   3.950  -0.097  1.00  0.00    -0.000 C 
BRANCH  11  12
ATOM     12  C   UNL     1      15.243   3.281  -1.460  1.00  0.00    -0.000 C 
BRANCH  12  13
ATOM     13  C   UNL     1      16.076   2.002  -1.650  1.00  0.00    -0.000 C 
BRANCH  13  14
ATOM     14  C   UNL     1      15.229   0.811  -2.132  1.00  0.00    -0.000 C 
BRANCH  14  15
ATOM     15  C   UNL     1      13.723   1.116  -2.114  1.00  0.00    -0.003 C 
ATOM     16  C   UNL     1      12.951   0.243  -1.125  1.00  0.00     0.004 C 
ENDBRANCH  14  15
ENDBRANCH  13  14
ENDBRANCH  12  13
ENDBRANCH  11  12
ENDBRANCH  10  11
ENDBRANCH   1  10
TORSDOF 12
ENDMDL
MODEL 3
REMARK VINA RESULT:    -4.362     13.932     15.096
REMARK INTER + INTRA:          -8.810
REMARK INTER:                  -7.328
REMARK INTRA:                  -1.481
REMARK UNBOUND:                -1.388
REMARK SMILES CCCCCCCCCCCCCC(=O)[O-]
REMARK SMILES IDX 8 1 9 2 10 3 11 4 12 5 13 6 14 7 15 8 16 9 7 10 6 11 5 12
REMARK SMILES IDX 4 13 3 14 2 15 1 16
REMARK H PARENT
REMARK Flexibility Score: inf
ROOT
ATOM      1  C   UNL     1      15.315   2.635   0.510  1.00  0.00     0.000 C 
ENDROOT
BRANCH   1   2
ATOM      2  C   UNL     1      15.001   3.196   1.906  1.00  0.00     0.000 C 
BRANCH   2   3
ATOM      3  C   UNL     1      13.515   3.072   2.272  1.00  0.00     0.000 C 
BRANCH   3   4
ATOM      4  C   UNL     1      12.762   4.370   1.956  1.00  0.00     0.000 C 
BRANCH   4   5
ATOM      5  C   UNL     1      11.355   4.073   1.416  1.00  0.00     0.006 C 
BRANCH   5   6
ATOM      6  C   UNL     1      10.505   5.343   1.276  1.00  0.00     0.053 C 
BRANCH   6   7
ATOM      7  C   UNL     1       9.151   5.046   0.709  1.00  0.00     0.041 C 
ATOM      8  O   UNL     1       8.467   4.095   1.170  1.00  0.00    -0.550 OA
ATOM      9  O   UNL     1       8.658   5.800  -0.349  1.00  0.00    -0.550 OA
ENDBRANCH   6   7
ENDBRANCH   5   6
ENDBRANCH   4   5
ENDBRANCH   3   4
ENDBRANCH   2   3
ENDBRANCH   1   2
BRANCH   1  10
ATOM     10  C   UNL     1      15.705   3.734  -0.495  1.00  0.00     0.000 C 
BRANCH  10  11
ATOM     11  C   UNL     1      14.820   3.730  -1.751  1.00  0.00    -0.000 C 
BRANCH  11  12
ATOM     12  C   UNL     1      13.434   3.115  -1.494  1.00  0.00    -0.000 C 
BRANCH  12  13
ATOM     13  C   UNL     1      13.120   1.947  -2.445  1.00  0.00    -0.000 C 
BRANCH  13  14
ATOM     14  C   UNL     1      12.925   0.615  -1.699  1.00  0.00    -0.000 C 
BRANCH  14  15
ATOM     15  C   UNL     1      14.230  -0.184  -1.572  1.00  0.00    -0.003 C 
ATOM     16  C   UNL     1      15.127  -0.057  -2.804  1.00  0.00     0.004 C 
ENDBRANCH  14  15
ENDBRANCH  13  14
ENDBRANCH  12  13
ENDBRANCH  11  12
ENDBRANCH  10  11
ENDBRANCH   1  10
TORSDOF 12
ENDMDL
MODEL 4
REMARK VINA RESULT:    -4.339     13.690     15.267
REMARK INTER + INTRA:          -8.770
REMARK INTER:                  -6.926
REMARK INTRA:                  -1.844
REMARK UNBOUND:                -1.388
REMARK SMILES CCCCCCCCCCCCCC(=O)[O-]
REMARK SMILES IDX 8 1 9 2 10 3 11 4 12 5 13 6 14 7 15 8 16 9 7 10 6 11 5 12
REMARK SMILES IDX 4 13 3 14 2 15 1 16
REMARK H PARENT
REMARK Flexibility Score: inf
ROOT
ATOM      1  C   UNL     1      14.716   0.700  -1.966  1.00  0.00     0.000 C 
ENDROOT
BRANCH   1   2
ATOM      2  C   UNL     1      13.313   1.327  -1.964  1.00  0.00     0.000 C 
BRANCH   2   3
ATOM      3  C   UNL     1      12.408   0.745  -0.870  1.00  0.00     0.000 C 
BRANCH   3   4
ATOM      4  C   UNL     1      11.788   1.860  -0.019  1.00  0.00     0.000 C 
BRANCH   4   5
ATOM      5  C   UNL     1      11.391   3.061  -0.889  1.00  0.00     0.006 C 
BRANCH   5   6
ATOM      6  C   UNL     1       9.889   3.365  -0.811  1.00  0.00     0.053 C 
BRANCH   6   7
ATOM      7  C   UNL     1       9.609   4.830  -0.954  1.00  0.00     0.041 C 
ATOM      8  O   UNL     1       9.402   5.326  -2.092  1.00  0.00    -0.550 OA
ATOM      9  O   UNL     1       9.610   5.652   0.166  1.00  0.00    -0.550 OA
ENDBRANCH   6   7
ENDBRANCH   5   6
ENDBRANCH   4   5
ENDBRANCH   3   4
ENDBRANCH   2   3
ENDBRANCH   1   2
BRANCH   1  10
ATOM     10  C   UNL     1      15.824   1.730  -1.686  1.00  0.00     0.000 C 
BRANCH  10  11
ATOM     11  C   UNL     1      15.340   3.180  -1.842  1.00  0.00    -0.000 C 
BRANCH  11  12
ATOM     12  C   UNL     1      15.377   3.961  -0.517  1.00  0.00    -0.000 C 
BRANCH  12  13
ATOM     13  C   UNL     1      15.376   3.037   0.713  1.00  0.00    -0.000 C 
BRANCH  13  14
ATOM     14  C   UNL     1      14.559   3.613   1.883  1.00  0.00    -0.000 C 
BRANCH  14  15
ATOM     15  C   UNL     1      13.733   4.842   1.475  1.00  0.00    -0.003 C 
ATOM     16  C   UNL     1      12.345   4.865   2.115  1.00  0.00     0.004 C 
ENDBRANCH  14  15
ENDBRANCH  13  14
ENDBRANCH  12  13
ENDBRANCH  11  12
ENDBRANCH  10  11
ENDBRANCH   1  10
TORSDOF 12
ENDMDL
MODEL 5
REMARK VINA RESULT:    -4.306     15.184     17.789
REMARK INTER + INTRA:          -8.715
REMARK INTER:                  -7.246
REMARK INTRA:                  -1.469
REMARK UNBOUND:                -1.388
REMARK SMILES CCCCCCCCCCCCCC(=O)[O-]
REMARK SMILES IDX 8 1 9 2 10 3 11 4 12 5 13 6 14 7 15 8 16 9 7 10 6 11 5 12
REMARK SMILES IDX 4 13 3 14 2 15 1 16
REMARK H PARENT
REMARK Flexibility Score: inf
ROOT
ATOM      1  C   UNL     1      27.328   7.022   9.043  1.00  0.00     0.000 C 
ENDROOT
BRANCH   1   2
ATOM      2  C   UNL     1      28.125   8.218   8.498  1.00  0.00     0.000 C 
BRANCH   2   3
ATOM      3  C   UNL     1      27.238   9.438   8.211  1.00  0.00     0.000 C 
BRANCH   3   4
ATOM      4  C   UNL     1      25.889   9.317   8.930  1.00  0.00     0.000 C 
BRANCH   4   5
ATOM      5  C   UNL     1      25.749  10.387  10.023  1.00  0.00     0.006 C 
BRANCH   5   6
ATOM      6  C   UNL     1      26.911  11.389  10.008  1.00  0.00     0.053 C 
BRANCH   6   7
ATOM      7  C   UNL     1      26.610  12.602  10.834  1.00  0.00     0.041 C 
ATOM      8  O   UNL     1      25.538  12.670  11.491  1.00  0.00    -0.550 OA
ATOM      9  O   UNL     1      27.497  13.671  10.853  1.00  0.00    -0.550 OA
ENDBRANCH   6   7
ENDBRANCH   5   6
ENDBRANCH   4   5
ENDBRANCH   3   4
ENDBRANCH   2   3
ENDBRANCH   1   2
BRANCH   1  10
ATOM     10  C   UNL     1      27.865   5.673   8.535  1.00  0.00     0.000 C 
BRANCH  10  11
ATOM     11  C   UNL     1      26.942   5.021   7.493  1.00  0.00    -0.000 C 
BRANCH  11  12
ATOM     12  C   UNL     1      27.148   5.596   6.082  1.00  0.00    -0.000 C 
BRANCH  12  13
ATOM     13  C   UNL     1      25.934   6.404   5.590  1.00  0.00    -0.000 C 
BRANCH  13  14
ATOM     14  C   UNL     1      24.749   6.343   6.570  1.00  0.00    -0.000 C 
BRANCH  14  15
ATOM     15  C   UNL     1      23.585   7.249   6.140  1.00  0.00    -0.003 C 
ATOM     16  C   UNL     1      24.036   8.662   5.771  1.00  0.00     0.004 C 
ENDBRANCH  14  15
ENDBRANCH  13  14
ENDBRANCH  12  13
ENDBRANCH  11  12
ENDBRANCH  10  11
ENDBRANCH   1  10
TORSDOF 12
ENDMDL
MODEL 6
REMARK VINA RESULT:    -4.285      2.955      6.380
REMARK INTER + INTRA:          -8.678
REMARK INTER:                  -7.334
REMARK INTRA:                  -1.344
REMARK UNBOUND:                -1.388
REMARK SMILES CCCCCCCCCCCCCC(=O)[O-]
REMARK SMILES IDX 8 1 9 2 10 3 11 4 12 5 13 6 14 7 15 8 16 9 7 10 6 11 5 12
REMARK SMILES IDX 4 13 3 14 2 15 1 16
REMARK H PARENT
REMARK Flexibility Score: inf
ROOT
ATOM      1  C   UNL     1      14.249  16.828  -0.319  1.00  0.00     0.000 C 
ENDROOT
BRANCH   1   2
ATOM      2  C   UNL     1      13.278  17.880  -0.875  1.00  0.00     0.000 C 
BRANCH   2   3
ATOM      3  C   UNL     1      13.992  18.979  -1.674  1.00  0.00     0.000 C 
BRANCH   3   4
ATOM      4  C   UNL     1      14.609  18.412  -2.958  1.00  0.00     0.000 C 
BRANCH   4   5
ATOM      5  C   UNL     1      13.582  18.390  -4.100  1.00  0.00     0.006 C 
BRANCH   5   6
ATOM      6  C   UNL     1      13.532  17.031  -4.811  1.00  0.00     0.053 C 
BRANCH   6   7
ATOM      7  C   UNL     1      12.366  16.208  -4.355  1.00  0.00     0.041 C 
ATOM      8  O   UNL     1      11.452  16.732  -3.665  1.00  0.00    -0.550 OA
ATOM      9  O   UNL     1      12.304  14.855  -4.665  1.00  0.00    -0.550 OA
ENDBRANCH   6   7
ENDBRANCH   5   6
ENDBRANCH   4   5
ENDBRANCH   3   4
ENDBRANCH   2   3
ENDBRANCH   1   2
BRANCH   1  10
ATOM     10  C   UNL     1      14.174  16.706   1.214  1.00  0.00     0.000 C 
BRANCH  10  11
ATOM     11  C   UNL     1      15.467  17.161   1.909  1.00  0.00    -0.000 C 
BRANCH  11  12
ATOM     12  C   UNL     1      15.825  18.622   1.589  1.00  0.00    -0.000 C 
BRANCH  12  13
ATOM     13  C   UNL     1      17.272  18.781   1.091  1.00  0.00    -0.000 C 
BRANCH  13  14
ATOM     14  C   UNL     1      18.174  17.608   1.516  1.00  0.00    -0.000 C 
BRANCH  14  15
ATOM     15  C   UNL     1      18.846  16.920   0.318  1.00  0.00    -0.003 C 
ATOM     16  C   UNL     1      17.886  16.029  -0.470  1.00  0.00     0.004 C 
ENDBRANCH  14  15
ENDBRANCH  13  14
ENDBRANCH  12  13
ENDBRANCH  11  12
ENDBRANCH  10  11
ENDBRANCH   1  10
TORSDOF 12
ENDMDL
MODEL 7
REMARK VINA RESULT:    -4.279      1.410      1.809
REMARK INTER + INTRA:          -8.669
REMARK INTER:                  -6.872
REMARK INTRA:                  -1.797
REMARK UNBOUND:                -1.388
REMARK SMILES CCCCCCCCCCCCCC(=O)[O-]
REMARK SMILES IDX 8 1 9 2 10 3 11 4 12 5 13 6 14 7 15 8 16 9 7 10 6 11 5 12
REMARK SMILES IDX 4 13 3 14 2 15 1 16
REMARK H PARENT
REMARK Flexibility Score: inf
ROOT
ATOM      1  C   UNL     1      15.486  17.285  -1.944  1.00  0.00     0.000 C 
ENDROOT
BRANCH   1   2
ATOM      2  C   UNL     1      14.789  16.505  -0.818  1.00  0.00     0.000 C 
BRANCH   2   3
ATOM      3  C   UNL     1      14.287  17.417   0.310  1.00  0.00     0.000 C 
BRANCH   3   4
ATOM      4  C   UNL     1      15.278  17.440   1.481  1.00  0.00     0.000 C 
BRANCH   4   5
ATOM      5  C   UNL     1      15.906  18.831   1.644  1.00  0.00     0.006 C 
BRANCH   5   6
ATOM      6  C   UNL     1      17.243  18.957   0.902  1.00  0.00     0.053 C 
BRANCH   6   7
ATOM      7  C   UNL     1      18.164  17.819   1.219  1.00  0.00     0.041 C 
ATOM      8  O   UNL     1      18.718  17.748   2.347  1.00  0.00    -0.550 OA
ATOM      9  O   UNL     1      18.436  16.853   0.257  1.00  0.00    -0.550 OA
ENDBRANCH   6   7
ENDBRANCH   5   6
ENDBRANCH   4   5
ENDBRANCH   3   4
ENDBRANCH   2   3
ENDBRANCH   1   2
BRANCH   1  10
ATOM     10  C   UNL     1      15.031  18.753  -2.014  1.00  0.00     0.000 C 
BRANCH  10  11
ATOM     11  C   UNL     1      14.125  19.036  -3.223  1.00  0.00    -0.000 C 
BRANCH  11  12
ATOM     12  C   UNL     1      13.843  17.774  -4.056  1.00  0.00    -0.000 C 
BRANCH  12  13
ATOM     13  C   UNL     1      12.342  17.449  -4.147  1.00  0.00    -0.000 C 
BRANCH  13  14
ATOM     14  C   UNL     1      11.736  17.076  -2.782  1.00  0.00    -0.000 C 
BRANCH  14  15
ATOM     15  C   UNL     1      10.713  18.111  -2.291  1.00  0.00    -0.003 C 
ATOM     16  C   UNL     1      11.081  18.712  -0.934  1.00  0.00     0.004 C 
ENDBRANCH  14  15
ENDBRANCH  13  14
ENDBRANCH  12  13
ENDBRANCH  11  12
ENDBRANCH  10  11
ENDBRANCH   1  10
TORSDOF 12
ENDMDL
MODEL 8
REMARK VINA RESULT:    -4.277     14.121     15.597
REMARK INTER + INTRA:          -8.666
REMARK INTER:                  -6.738
REMARK INTRA:                  -1.928
REMARK UNBOUND:                -1.388
REMARK SMILES CCCCCCCCCCCCCC(=O)[O-]
REMARK SMILES IDX 8 1 9 2 10 3 11 4 12 5 13 6 14 7 15 8 16 9 7 10 6 11 5 12
REMARK SMILES IDX 4 13 3 14 2 15 1 16
REMARK H PARENT
REMARK Flexibility Score: inf
ROOT
ATOM      1  C   UNL     1      13.844   0.785  -2.118  1.00  0.00     0.000 C 
ENDROOT
BRANCH   1   2
ATOM      2  C   UNL     1      13.117   0.142  -0.926  1.00  0.00     0.000 C 
BRANCH   2   3
ATOM      3  C   UNL     1      12.147   1.111  -0.234  1.00  0.00     0.000 C 
BRANCH   3   4
ATOM      4  C   UNL     1      11.842   2.317  -1.130  1.00  0.00     0.000 C 
BRANCH   4   5
ATOM      5  C   UNL     1      10.614   3.086  -0.620  1.00  0.00     0.006 C 
BRANCH   5   6
ATOM      6  C   UNL     1      10.598   3.208   0.910  1.00  0.00     0.053 C 
BRANCH   6   7
ATOM      7  C   UNL     1      10.448   4.632   1.352  1.00  0.00     0.041 C 
ATOM      8  O   UNL     1      11.431   5.250   1.839  1.00  0.00    -0.550 OA
ATOM      9  O   UNL     1       9.215   5.265   1.258  1.00  0.00    -0.550 OA
ENDBRANCH   6   7
ENDBRANCH   5   6
ENDBRANCH   4   5
ENDBRANCH   3   4
ENDBRANCH   2   3
ENDBRANCH   1   2
BRANCH   1  10
ATOM     10  C   UNL     1      15.347   0.456  -2.140  1.00  0.00     0.000 C 
BRANCH  10  11
ATOM     11  C   UNL     1      16.223   1.655  -1.745  1.00  0.00    -0.000 C 
BRANCH  11  12
ATOM     12  C   UNL     1      15.420   2.963  -1.642  1.00  0.00    -0.000 C 
BRANCH  12  13
ATOM     13  C   UNL     1      15.750   3.761  -0.369  1.00  0.00    -0.000 C 
BRANCH  13  14
ATOM     14  C   UNL     1      14.494   4.125   0.442  1.00  0.00    -0.000 C 
BRANCH  14  15
ATOM     15  C   UNL     1      14.560   3.614   1.889  1.00  0.00    -0.003 C 
ATOM     16  C   UNL     1      15.000   2.153   1.984  1.00  0.00     0.004 C 
ENDBRANCH  14  15
ENDBRANCH  13  14
ENDBRANCH  12  13
ENDBRANCH  11  12
ENDBRANCH  10  11
ENDBRANCH   1  10
TORSDOF 12
ENDMDL
MODEL 9
REMARK VINA RESULT:    -4.276     14.801     15.535
REMARK INTER + INTRA:          -8.663
REMARK INTER:                  -7.029
REMARK INTRA:                  -1.634
REMARK UNBOUND:                -1.388
REMARK SMILES CCCCCCCCCCCCCC(=O)[O-]
REMARK SMILES IDX 8 1 9 2 10 3 11 4 12 5 13 6 14 7 15 8 16 9 7 10 6 11 5 12
REMARK SMILES IDX 4 13 3 14 2 15 1 16
REMARK H PARENT
REMARK Flexibility Score: inf
ROOT
ATOM      1  C   UNL     1      15.287   3.808  -0.669  1.00  0.00     0.000 C 
ENDROOT
BRANCH   1   2
ATOM      2  C   UNL     1      14.822   4.196   0.743  1.00  0.00     0.000 C 
BRANCH   2   3
ATOM      3  C   UNL     1      15.080   3.088   1.775  1.00  0.00     0.000 C 
BRANCH   3   4
ATOM      4  C   UNL     1      13.769   2.622   2.419  1.00  0.00     0.000 C 
BRANCH   4   5
ATOM      5  C   UNL     1      14.041   1.786   3.679  1.00  0.00     0.006 C 
BRANCH   5   6
ATOM      6  C   UNL     1      15.513   1.841   4.107  1.00  0.00     0.053 C 
BRANCH   6   7
ATOM      7  C   UNL     1      15.657   1.911   5.597  1.00  0.00     0.041 C 
ATOM      8  O   UNL     1      14.700   1.571   6.341  1.00  0.00    -0.550 OA
ATOM      9  O   UNL     1      16.836   2.382   6.162  1.00  0.00    -0.550 OA
ENDBRANCH   6   7
ENDBRANCH   5   6
ENDBRANCH   4   5
ENDBRANCH   3   4
ENDBRANCH   2   3
ENDBRANCH   1   2
BRANCH   1  10
ATOM     10  C   UNL     1      16.415   2.762  -0.654  1.00  0.00     0.000 C 
BRANCH  10  11
ATOM     11  C   UNL     1      16.168   1.608  -1.639  1.00  0.00    -0.000 C 
BRANCH  11  12
ATOM     12  C   UNL     1      14.900   0.805  -1.301  1.00  0.00    -0.000 C 
BRANCH  12  13
ATOM     13  C   UNL     1      13.985   0.604  -2.520  1.00  0.00    -0.000 C 
BRANCH  13  14
ATOM     14  C   UNL     1      12.618   1.291  -2.353  1.00  0.00    -0.000 C 
BRANCH  14  15
ATOM     15  C   UNL     1      12.262   1.540  -0.880  1.00  0.00    -0.003 C 
ATOM     16  C   UNL     1      11.596   2.897  -0.650  1.00  0.00     0.004 C 
ENDBRANCH  14  15
ENDBRANCH  13  14
ENDBRANCH  12  13
ENDBRANCH  11  12
ENDBRANCH  10  11
ENDBRANCH   1  10
TORSDOF 12
ENDMDL
