MODEL 1
REMARK VINA RESULT:    -7.131      0.000      0.000
REMARK INTER + INTRA:         -17.845
REMARK INTER:                 -16.302
REMARK INTRA:                  -1.543
REMARK UNBOUND:                -1.543
REMARK SMILES CCCCCCCCCCCCCCCCCCCCCCCC(=O)[O-]
REMARK SMILES IDX 13 1 14 2 15 3 16 4 17 5 18 6 19 7 20 8 21 9 22 10 23 11
REMARK SMILES IDX 24 12 25 13 26 14 12 15 11 16 10 17 9 18 8 19 7 20 6 21 5 22
REMARK SMILES IDX 4 23 3 24 2 25 1 26
REMARK H PARENT
REMARK Flexibility Score: inf
ROOT
ATOM      1  C   UNL     1     -22.298 -22.339  28.511  1.00  0.00     0.000 C 
ENDROOT
BRANCH   1   2
ATOM      2  C   UNL     1     -22.320 -20.910  29.090  1.00  0.00     0.000 C 
BRANCH   2   3
ATOM      3  C   UNL     1     -21.569 -19.854  28.255  1.00  0.00     0.000 C 
BRANCH   3   4
ATOM      4  C   UNL     1     -20.953 -18.710  29.080  1.00  0.00     0.000 C 
BRANCH   4   5
ATOM      5  C   UNL     1     -20.367 -19.201  30.416  1.00  0.00     0.000 C 
BRANCH   5   6
ATOM      6  C   UNL     1     -18.977 -18.608  30.708  1.00  0.00     0.000 C 
BRANCH   6   7
ATOM      7  C   UNL     1     -18.993 -17.140  31.177  1.00  0.00     0.000 C 
BRANCH   7   8
ATOM      8  C   UNL     1     -18.443 -16.116  30.160  1.00  0.00     0.000 C 
BRANCH   8   9
ATOM      9  C   UNL     1     -18.400 -16.606  28.700  1.00  0.00     0.000 C 
BRANCH   9  10
ATOM     10  C   UNL     1     -17.864 -15.539  27.731  1.00  0.00     0.006 C 
BRANCH  10  11
ATOM     11  C   UNL     1     -16.947 -16.139  26.655  1.00  0.00     0.053 C 
BRANCH  11  12
ATOM     12  C   UNL     1     -17.120 -15.463  25.328  1.00  0.00     0.041 C 
ATOM     13  O   UNL     1     -16.114 -15.187  24.622  1.00  0.00    -0.550 OA
ATOM     14  O   UNL     1     -18.392 -15.154  24.864  1.00  0.00    -0.550 OA
ENDBRANCH  11  12
ENDBRANCH  10  11
ENDBRANCH   9  10
ENDBRANCH   8   9
ENDBRANCH   7   8
ENDBRANCH   6   7
ENDBRANCH   5   6
ENDBRANCH   4   5
ENDBRANCH   3   4
ENDBRANCH   2   3
ENDBRANCH   1   2
BRANCH   1  15
ATOM     15  C   UNL     1     -22.074 -23.466  29.542  1.00  0.00     0.000 C 
BRANCH  15  16
ATOM     16  C   UNL     1     -22.268 -23.046  31.013  1.00  0.00     0.000 C 
BRANCH  16  17
ATOM     17  C   UNL     1     -23.497 -23.711  31.658  1.00  0.00     0.000 C 
BRANCH  17  18
ATOM     18  C   UNL     1     -23.520 -25.239  31.482  1.00  0.00    -0.000 C 
BRANCH  18  19
ATOM     19  C   UNL     1     -24.905 -25.847  31.203  1.00  0.00    -0.000 C 
BRANCH  19  20
ATOM     20  C   UNL     1     -25.338 -25.710  29.733  1.00  0.00    -0.000 C 
BRANCH  20  21
ATOM     21  C   UNL     1     -24.297 -26.284  28.760  1.00  0.00    -0.000 C 
BRANCH  21  22
ATOM     22  C   UNL     1     -24.846 -27.468  27.946  1.00  0.00    -0.000 C 
BRANCH  22  23
ATOM     23  C   UNL     1     -26.332 -27.744  28.230  1.00  0.00    -0.000 C 
BRANCH  23  24
ATOM     24  C   UNL     1     -26.944 -28.820  27.305  1.00  0.00    -0.000 C 
BRANCH  24  25
ATOM     25  C   UNL     1     -26.562 -28.605  25.834  1.00  0.00    -0.003 C 
ATOM     26  C   UNL     1     -27.740 -28.900  24.910  1.00  0.00     0.004 C 
ENDBRANCH  24  25
ENDBRANCH  23  24
ENDBRANCH  22  23
ENDBRANCH  21  22
ENDBRANCH  20  21
ENDBRANCH  19  20
ENDBRANCH  18  19
ENDBRANCH  17  18
ENDBRANCH  16  17
ENDBRANCH  15  16
ENDBRANCH   1  15
TORSDOF 22
ENDMDL
MODEL 2
REMARK VINA RESULT:    -7.063      4.683     11.874
REMARK INTER + INTRA:         -17.691
REMARK INTER:                 -16.377
REMARK INTRA:                  -1.314
REMARK UNBOUND:                -1.543
REMARK SMILES CCCCCCCCCCCCCCCCCCCCCCCC(=O)[O-]
REMARK SMILES IDX 13 1 14 2 15 3 16 4 17 5 18 6 19 7 20 8 21 9 22 10 23 11
REMARK SMILES IDX 24 12 25 13 26 14 12 15 11 16 10 17 9 18 8 19 7 20 6 21 5 22
REMARK SMILES IDX 4 23 3 24 2 25 1 26
REMARK H PARENT
REMARK Flexibility Score: inf
ROOT
ATOM      1  C   UNL     1     -22.135 -21.973  28.378  1.00  0.00     0.000 C 
ENDROOT
BRANCH   1   2
ATOM      2  C   UNL     1     -21.976 -23.396  28.951  1.00  0.00     0.000 C 
BRANCH   2   3
ATOM      3  C   UNL     1     -22.977 -24.436  28.410  1.00  0.00     0.000 C 
BRANCH   3   4
ATOM      4  C   UNL     1     -23.256 -25.608  29.366  1.00  0.00     0.000 C 
BRANCH   4   5
ATOM      5  C   UNL     1     -23.868 -25.144  30.700  1.00  0.00     0.000 C 
BRANCH   5   6
ATOM      6  C   UNL     1     -25.273 -25.725  30.942  1.00  0.00     0.000 C 
BRANCH   6   7
ATOM      7  C   UNL     1     -25.321 -27.261  31.049  1.00  0.00     0.000 C 
BRANCH   7   8
ATOM      8  C   UNL     1     -26.059 -27.980  29.898  1.00  0.00     0.000 C 
BRANCH   8   9
ATOM      9  C   UNL     1     -26.188 -27.165  28.597  1.00  0.00     0.000 C 
BRANCH   9  10
ATOM     10  C   UNL     1     -25.831 -27.983  27.345  1.00  0.00     0.006 C 
BRANCH  10  11
ATOM     11  C   UNL     1     -27.041 -28.741  26.781  1.00  0.00     0.053 C 
BRANCH  11  12
ATOM     12  C   UNL     1     -27.009 -28.818  25.284  1.00  0.00     0.041 C 
ATOM     13  O   UNL     1     -25.930 -29.069  24.685  1.00  0.00    -0.550 OA
ATOM     14  O   UNL     1     -28.174 -28.629  24.551  1.00  0.00    -0.550 OA
ENDBRANCH  11  12
ENDBRANCH  10  11
ENDBRANCH   9  10
ENDBRANCH   8   9
ENDBRANCH   7   8
ENDBRANCH   6   7
ENDBRANCH   5   6
ENDBRANCH   4   5
ENDBRANCH   3   4
ENDBRANCH   2   3
ENDBRANCH   1   2
BRANCH   1  15
ATOM     15  C   UNL     1     -22.153 -20.837  29.423  1.00  0.00     0.000 C 
BRANCH  15  16
ATOM     16  C   UNL     1     -21.998 -21.300  30.885  1.00  0.00     0.000 C 
BRANCH  16  17
ATOM     17  C   UNL     1     -20.823 -20.611  31.600  1.00  0.00     0.000 C 
BRANCH  17  18
ATOM     18  C   UNL     1     -20.854 -19.078  31.474  1.00  0.00    -0.000 C 
BRANCH  18  19
ATOM     19  C   UNL     1     -19.563 -18.436  30.938  1.00  0.00    -0.000 C 
BRANCH  19  20
ATOM     20  C   UNL     1     -19.821 -17.394  29.836  1.00  0.00    -0.000 C 
BRANCH  20  21
ATOM     21  C   UNL     1     -18.807 -17.492  28.686  1.00  0.00    -0.000 C 
BRANCH  21  22
ATOM     22  C   UNL     1     -18.213 -16.124  28.309  1.00  0.00    -0.000 C 
BRANCH  22  23
ATOM     23  C   UNL     1     -17.271 -16.200  27.096  1.00  0.00    -0.000 C 
BRANCH  23  24
ATOM     24  C   UNL     1     -17.821 -15.477  25.846  1.00  0.00    -0.000 C 
BRANCH  24  25
ATOM     25  C   UNL     1     -16.702 -14.873  24.985  1.00  0.00    -0.003 C 
ATOM     26  C   UNL     1     -15.899 -15.963  24.282  1.00  0.00     0.004 C 
ENDBRANCH  24  25
ENDBRANCH  23  24
ENDBRANCH  22  23
ENDBRANCH  21  22
ENDBRANCH  20  21
ENDBRANCH  19  20
ENDBRANCH  18  19
ENDBRANCH  17  18
ENDBRANCH  16  17
ENDBRANCH  15  16
ENDBRANCH   1  15
TORSDOF 22
ENDMDL
MODEL 3
REMARK VINA RESULT:    -6.984      0.900      1.438
REMARK INTER + INTRA:         -17.509
REMARK INTER:                 -16.142
REMARK INTRA:                  -1.367
REMARK UNBOUND:                -1.543
REMARK SMILES CCCCCCCCCCCCCCCCCCCCCCCC(=O)[O-]
REMARK SMILES IDX 13 1 14 2 15 3 16 4 17 5 18 6 19 7 20 8 21 9 22 10 23 11
REMARK SMILES IDX 24 12 25 13 26 14 12 15 11 16 10 17 9 18 8 19 7 20 6 21 5 22
REMARK SMILES IDX 4 23 3 24 2 25 1 26
REMARK H PARENT
REMARK Flexibility Score: inf
ROOT
ATOM      1  C   UNL     1     -21.769 -20.863  30.715  1.00  0.00     0.000 C 
ENDROOT
BRANCH   1   2
ATOM      2  C   UNL     1     -22.055 -20.929  29.201  1.00  0.00     0.000 C 
BRANCH   2   3
ATOM      3  C   UNL     1     -21.613 -19.691  28.397  1.00  0.00     0.000 C 
BRANCH   3   4
ATOM      4  C   UNL     1     -20.293 -19.061  28.873  1.00  0.00     0.000 C 
BRANCH   4   5
ATOM      5  C   UNL     1     -20.504 -17.685  29.529  1.00  0.00     0.000 C 
BRANCH   5   6
ATOM      6  C   UNL     1     -19.703 -17.520  30.833  1.00  0.00     0.000 C 
BRANCH   6   7
ATOM      7  C   UNL     1     -18.285 -16.946  30.646  1.00  0.00     0.000 C 
BRANCH   7   8
ATOM      8  C   UNL     1     -18.224 -15.468  30.202  1.00  0.00     0.000 C 
BRANCH   8   9
ATOM      9  C   UNL     1     -17.493 -15.217  28.869  1.00  0.00     0.000 C 
BRANCH   9  10
ATOM     10  C   UNL     1     -18.195 -15.880  27.673  1.00  0.00     0.006 C 
BRANCH  10  11
ATOM     11  C   UNL     1     -17.200 -16.344  26.599  1.00  0.00     0.053 C 
BRANCH  11  12
ATOM     12  C   UNL     1     -17.258 -15.488  25.370  1.00  0.00     0.041 C 
ATOM     13  O   UNL     1     -18.360 -15.267  24.803  1.00  0.00    -0.550 OA
ATOM     14  O   UNL     1     -16.097 -14.921  24.861  1.00  0.00    -0.550 OA
ENDBRANCH  11  12
ENDBRANCH  10  11
ENDBRANCH   9  10
ENDBRANCH   8   9
ENDBRANCH   7   8
ENDBRANCH   6   7
ENDBRANCH   5   6
ENDBRANCH   4   5
ENDBRANCH   3   4
ENDBRANCH   2   3
ENDBRANCH   1   2
BRANCH   1  15
ATOM     15  C   UNL     1     -21.976 -22.186  31.485  1.00  0.00     0.000 C 
BRANCH  15  16
ATOM     16  C   UNL     1     -22.567 -23.337  30.648  1.00  0.00     0.000 C 
BRANCH  16  17
ATOM     17  C   UNL     1     -23.342 -24.352  31.506  1.00  0.00     0.000 C 
BRANCH  17  18
ATOM     18  C   UNL     1     -23.926 -25.516  30.686  1.00  0.00    -0.000 C 
BRANCH  18  19
ATOM     19  C   UNL     1     -23.427 -25.612  29.234  1.00  0.00    -0.000 C 
BRANCH  19  20
ATOM     20  C   UNL     1     -24.161 -26.689  28.416  1.00  0.00    -0.000 C 
BRANCH  20  21
ATOM     21  C   UNL     1     -25.651 -26.787  28.779  1.00  0.00    -0.000 C 
BRANCH  21  22
ATOM     22  C   UNL     1     -26.086 -28.231  29.082  1.00  0.00    -0.000 C 
BRANCH  22  23
ATOM     23  C   UNL     1     -26.973 -28.827  27.976  1.00  0.00    -0.000 C 
BRANCH  23  24
ATOM     24  C   UNL     1     -26.847 -28.090  26.624  1.00  0.00    -0.000 C 
BRANCH  24  25
ATOM     25  C   UNL     1     -26.823 -29.059  25.433  1.00  0.00    -0.003 C 
ATOM     26  C   UNL     1     -28.095 -28.936  24.599  1.00  0.00     0.004 C 
ENDBRANCH  24  25
ENDBRANCH  23  24
ENDBRANCH  22  23
ENDBRANCH  21  22
ENDBRANCH  20  21
ENDBRANCH  19  20
ENDBRANCH  18  19
ENDBRANCH  17  18
ENDBRANCH  16  17
ENDBRANCH  15  16
ENDBRANCH   1  15
TORSDOF 22
ENDMDL
MODEL 4
REMARK VINA RESULT:    -6.517      0.839      1.921
REMARK INTER + INTRA:         -16.441
REMARK INTER:                 -15.093
REMARK INTRA:                  -1.348
REMARK UNBOUND:                -1.543
REMARK SMILES CCCCCCCCCCCCCCCCCCCCCCCC(=O)[O-]
REMARK SMILES IDX 13 1 14 2 15 3 16 4 17 5 18 6 19 7 20 8 21 9 22 10 23 11
REMARK SMILES IDX 24 12 25 13 26 14 12 15 11 16 10 17 9 18 8 19 7 20 6 21 5 22
REMARK SMILES IDX 4 23 3 24 2 25 1 26
REMARK H PARENT
REMARK Flexibility Score: inf
ROOT
ATOM      1  C   UNL     1     -21.962 -23.002  30.767  1.00  0.00     0.000 C 
ENDROOT
BRANCH   1   2
ATOM      2  C   UNL     1     -21.973 -23.024  29.225  1.00  0.00     0.000 C 
BRANCH   2   3
ATOM      3  C   UNL     1     -22.403 -21.706  28.553  1.00  0.00     0.000 C 
BRANCH   3   4
ATOM      4  C   UNL     1     -21.409 -20.546  28.733  1.00  0.00     0.000 C 
BRANCH   4   5
ATOM      5  C   UNL     1     -21.719 -19.695  29.977  1.00  0.00     0.000 C 
BRANCH   5   6
ATOM      6  C   UNL     1     -20.493 -19.505  30.888  1.00  0.00     0.000 C 
BRANCH   6   7
ATOM      7  C   UNL     1     -19.855 -18.103  30.819  1.00  0.00     0.000 C 
BRANCH   7   8
ATOM      8  C   UNL     1     -19.958 -17.397  29.449  1.00  0.00     0.000 C 
BRANCH   8   9
ATOM      9  C   UNL     1     -18.672 -16.688  28.983  1.00  0.00     0.000 C 
BRANCH   9  10
ATOM     10  C   UNL     1     -18.627 -16.481  27.461  1.00  0.00     0.006 C 
BRANCH  10  11
ATOM     11  C   UNL     1     -17.372 -15.715  27.015  1.00  0.00     0.053 C 
BRANCH  11  12
ATOM     12  C   UNL     1     -17.347 -15.489  25.534  1.00  0.00     0.041 C 
ATOM     13  O   UNL     1     -18.419 -15.285  24.905  1.00  0.00    -0.550 OA
ATOM     14  O   UNL     1     -16.139 -15.486  24.849  1.00  0.00    -0.550 OA
ENDBRANCH  11  12
ENDBRANCH  10  11
ENDBRANCH   9  10
ENDBRANCH   8   9
ENDBRANCH   7   8
ENDBRANCH   6   7
ENDBRANCH   5   6
ENDBRANCH   4   5
ENDBRANCH   3   4
ENDBRANCH   2   3
ENDBRANCH   1   2
BRANCH   1  15
ATOM     15  C   UNL     1     -23.162 -23.694  31.447  1.00  0.00     0.000 C 
BRANCH  15  16
ATOM     16  C   UNL     1     -23.256 -25.214  31.204  1.00  0.00     0.000 C 
BRANCH  16  17
ATOM     17  C   UNL     1     -24.584 -25.809  31.704  1.00  0.00     0.000 C 
BRANCH  17  18
ATOM     18  C   UNL     1     -25.622 -25.997  30.585  1.00  0.00    -0.000 C 
BRANCH  18  19
ATOM     19  C   UNL     1     -25.102 -25.750  29.158  1.00  0.00    -0.000 C 
BRANCH  19  20
ATOM     20  C   UNL     1     -25.003 -27.038  28.322  1.00  0.00    -0.000 C 
BRANCH  20  21
ATOM     21  C   UNL     1     -25.696 -28.231  28.999  1.00  0.00    -0.000 C 
BRANCH  21  22
ATOM     22  C   UNL     1     -26.816 -28.828  28.130  1.00  0.00    -0.000 C 
BRANCH  22  23
ATOM     23  C   UNL     1     -27.023 -28.055  26.816  1.00  0.00    -0.000 C 
BRANCH  23  24
ATOM     24  C   UNL     1     -26.735 -28.900  25.555  1.00  0.00    -0.000 C 
BRANCH  24  25
ATOM     25  C   UNL     1     -28.004 -29.166  24.733  1.00  0.00    -0.003 C 
ATOM     26  C   UNL     1     -28.447 -27.913  23.982  1.00  0.00     0.004 C 
ENDBRANCH  24  25
ENDBRANCH  23  24
ENDBRANCH  22  23
ENDBRANCH  21  22
ENDBRANCH  20  21
ENDBRANCH  19  20
ENDBRANCH  18  19
ENDBRANCH  17  18
ENDBRANCH  16  17
ENDBRANCH  15  16
ENDBRANCH   1  15
TORSDOF 22
ENDMDL
MODEL 5
REMARK VINA RESULT:    -6.367      4.959     11.904
REMARK INTER + INTRA:         -16.100
REMARK INTER:                 -14.443
REMARK INTRA:                  -1.657
REMARK UNBOUND:                -1.543
REMARK SMILES CCCCCCCCCCCCCCCCCCCCCCCC(=O)[O-]
REMARK SMILES IDX 13 1 14 2 15 3 16 4 17 5 18 6 19 7 20 8 21 9 22 10 23 11
REMARK SMILES IDX 24 12 25 13 26 14 12 15 11 16 10 17 9 18 8 19 7 20 6 21 5 22
REMARK SMILES IDX 4 23 3 24 2 25 1 26
REMARK H PARENT
REMARK Flexibility Score: inf
ROOT
ATOM      1  C   UNL     1     -21.853 -21.943  28.282  1.00  0.00     0.000 C 
ENDROOT
BRANCH   1   2
ATOM      2  C   UNL     1     -22.102 -23.345  28.874  1.00  0.00     0.000 C 
BRANCH   2   3
ATOM      3  C   UNL     1     -22.117 -23.412  30.414  1.00  0.00     0.000 C 
BRANCH   3   4
ATOM      4  C   UNL     1     -23.495 -23.724  31.024  1.00  0.00     0.000 C 
BRANCH   4   5
ATOM      5  C   UNL     1     -23.535 -25.102  31.708  1.00  0.00     0.000 C 
BRANCH   5   6
ATOM      6  C   UNL     1     -24.331 -26.143  30.902  1.00  0.00     0.000 C 
BRANCH   6   7
ATOM      7  C   UNL     1     -23.594 -26.695  29.666  1.00  0.00     0.000 C 
BRANCH   7   8
ATOM      8  C   UNL     1     -24.249 -26.368  28.306  1.00  0.00     0.000 C 
BRANCH   8   9
ATOM      9  C   UNL     1     -25.759 -26.663  28.222  1.00  0.00     0.000 C 
BRANCH   9  10
ATOM     10  C   UNL     1     -26.061 -28.050  27.631  1.00  0.00     0.006 C 
BRANCH  10  11
ATOM     11  C   UNL     1     -27.180 -28.776  28.392  1.00  0.00     0.053 C 
BRANCH  11  12
ATOM     12  C   UNL     1     -26.670 -29.459  29.625  1.00  0.00     0.041 C 
ATOM     13  O   UNL     1     -26.530 -30.710  29.645  1.00  0.00    -0.550 OA
ATOM     14  O   UNL     1     -26.333 -28.712  30.747  1.00  0.00    -0.550 OA
ENDBRANCH  11  12
ENDBRANCH  10  11
ENDBRANCH   9  10
ENDBRANCH   8   9
ENDBRANCH   7   8
ENDBRANCH   6   7
ENDBRANCH   5   6
ENDBRANCH   4   5
ENDBRANCH   3   4
ENDBRANCH   2   3
ENDBRANCH   1   2
BRANCH   1  15
ATOM     15  C   UNL     1     -22.434 -20.768  29.097  1.00  0.00     0.000 C 
BRANCH  15  16
ATOM     16  C   UNL     1     -21.391 -19.749  29.598  1.00  0.00     0.000 C 
BRANCH  16  17
ATOM     17  C   UNL     1     -20.899 -20.063  31.022  1.00  0.00     0.000 C 
BRANCH  17  18
ATOM     18  C   UNL     1     -20.321 -18.835  31.746  1.00  0.00    -0.000 C 
BRANCH  18  19
ATOM     19  C   UNL     1     -20.129 -17.586  30.870  1.00  0.00    -0.000 C 
BRANCH  19  20
ATOM     20  C   UNL     1     -18.738 -16.948  31.028  1.00  0.00    -0.000 C 
BRANCH  20  21
ATOM     21  C   UNL     1     -18.290 -16.197  29.764  1.00  0.00    -0.000 C 
BRANCH  21  22
ATOM     22  C   UNL     1     -18.222 -17.114  28.531  1.00  0.00    -0.000 C 
BRANCH  22  23
ATOM     23  C   UNL     1     -18.493 -16.361  27.217  1.00  0.00    -0.000 C 
BRANCH  23  24
ATOM     24  C   UNL     1     -17.268 -15.578  26.696  1.00  0.00    -0.000 C 
BRANCH  24  25
ATOM     25  C   UNL     1     -17.380 -15.254  25.199  1.00  0.00    -0.003 C 
ATOM     26  C   UNL     1     -16.161 -15.761  24.434  1.00  0.00     0.004 C 
ENDBRANCH  24  25
ENDBRANCH  23  24
ENDBRANCH  22  23
ENDBRANCH  21  22
ENDBRANCH  20  21
ENDBRANCH  19  20
ENDBRANCH  18  19
ENDBRANCH  17  18
ENDBRANCH  16  17
ENDBRANCH  15  16
ENDBRANCH   1  15
TORSDOF 22
ENDMDL
MODEL 6
REMARK VINA RESULT:    -6.148      1.297      2.558
REMARK INTER + INTRA:         -15.598
REMARK INTER:                 -13.773
REMARK INTRA:                  -1.825
REMARK UNBOUND:                -1.543
REMARK SMILES CCCCCCCCCCCCCCCCCCCCCCCC(=O)[O-]
REMARK SMILES IDX 13 1 14 2 15 3 16 4 17 5 18 6 19 7 20 8 21 9 22 10 23 11
REMARK SMILES IDX 24 12 25 13 26 14 12 15 11 16 10 17 9 18 8 19 7 20 6 21 5 22
REMARK SMILES IDX 4 23 3 24 2 25 1 26
REMARK H PARENT
REMARK Flexibility Score: inf
ROOT
ATOM      1  C   UNL     1     -21.984 -23.781  30.108  1.00  0.00     0.000 C 
ENDROOT
BRANCH   1   2
ATOM      2  C   UNL     1     -22.500 -23.728  28.656  1.00  0.00     0.000 C 
BRANCH   2   3
ATOM      3  C   UNL     1     -22.481 -22.332  28.004  1.00  0.00     0.000 C 
BRANCH   3   4
ATOM      4  C   UNL     1     -21.443 -21.365  28.601  1.00  0.00     0.000 C 
BRANCH   4   5
ATOM      5  C   UNL     1     -22.097 -20.141  29.267  1.00  0.00     0.000 C 
BRANCH   5   6
ATOM      6  C   UNL     1     -22.036 -20.198  30.804  1.00  0.00     0.000 C 
BRANCH   6   7
ATOM      7  C   UNL     1     -20.652 -19.878  31.402  1.00  0.00     0.000 C 
BRANCH   7   8
ATOM      8  C   UNL     1     -20.032 -18.537  30.950  1.00  0.00     0.000 C 
BRANCH   8   9
ATOM      9  C   UNL     1     -19.229 -18.600  29.637  1.00  0.00     0.000 C 
BRANCH   9  10
ATOM     10  C   UNL     1     -19.281 -17.283  28.846  1.00  0.00     0.006 C 
BRANCH  10  11
ATOM     11  C   UNL     1     -18.065 -17.110  27.923  1.00  0.00     0.053 C 
BRANCH  11  12
ATOM     12  C   UNL     1     -17.703 -15.669  27.732  1.00  0.00     0.041 C 
ATOM     13  O   UNL     1     -17.546 -15.203  26.572  1.00  0.00    -0.550 OA
ATOM     14  O   UNL     1     -17.557 -14.835  28.833  1.00  0.00    -0.550 OA
ENDBRANCH  11  12
ENDBRANCH  10  11
ENDBRANCH   9  10
ENDBRANCH   8   9
ENDBRANCH   7   8
ENDBRANCH   6   7
ENDBRANCH   5   6
ENDBRANCH   4   5
ENDBRANCH   3   4
ENDBRANCH   2   3
ENDBRANCH   1   2
BRANCH   1  15
ATOM     15  C   UNL     1     -23.076 -23.740  31.200  1.00  0.00     0.000 C 
BRANCH  15  16
ATOM     16  C   UNL     1     -23.504 -25.120  31.738  1.00  0.00     0.000 C 
BRANCH  16  17
ATOM     17  C   UNL     1     -24.890 -25.548  31.224  1.00  0.00     0.000 C 
BRANCH  17  18
ATOM     18  C   UNL     1     -24.892 -26.944  30.578  1.00  0.00    -0.000 C 
BRANCH  18  19
ATOM     19  C   UNL     1     -23.994 -27.095  29.338  1.00  0.00    -0.000 C 
BRANCH  19  20
ATOM     20  C   UNL     1     -24.762 -26.931  28.015  1.00  0.00    -0.000 C 
BRANCH  20  21
ATOM     21  C   UNL     1     -26.255 -27.260  28.159  1.00  0.00    -0.000 C 
BRANCH  21  22
ATOM     22  C   UNL     1     -26.618 -28.619  27.535  1.00  0.00    -0.000 C 
BRANCH  22  23
ATOM     23  C   UNL     1     -26.307 -28.681  26.029  1.00  0.00    -0.000 C 
BRANCH  23  24
ATOM     24  C   UNL     1     -27.537 -29.032  25.163  1.00  0.00    -0.000 C 
BRANCH  24  25
ATOM     25  C   UNL     1     -28.242 -27.780  24.621  1.00  0.00    -0.003 C 
ATOM     26  C   UNL     1     -28.943 -28.073  23.297  1.00  0.00     0.004 C 
ENDBRANCH  24  25
ENDBRANCH  23  24
ENDBRANCH  22  23
ENDBRANCH  21  22
ENDBRANCH  20  21
ENDBRANCH  19  20
ENDBRANCH  18  19
ENDBRANCH  17  18
ENDBRANCH  16  17
ENDBRANCH  15  16
ENDBRANCH   1  15
TORSDOF 22
ENDMDL
MODEL 7
REMARK VINA RESULT:    -5.934      4.648     11.824
REMARK INTER + INTRA:         -15.108
REMARK INTER:                 -14.001
REMARK INTRA:                  -1.107
REMARK UNBOUND:                -1.543
REMARK SMILES CCCCCCCCCCCCCCCCCCCCCCCC(=O)[O-]
REMARK SMILES IDX 13 1 14 2 15 3 16 4 17 5 18 6 19 7 20 8 21 9 22 10 23 11
REMARK SMILES IDX 24 12 25 13 26 14 12 15 11 16 10 17 9 18 8 19 7 20 6 21 5 22
REMARK SMILES IDX 4 23 3 24 2 25 1 26
REMARK H PARENT
REMARK Flexibility Score: inf
ROOT
ATOM      1  C   UNL     1     -21.950 -23.500  28.372  1.00  0.00     0.000 C 
ENDROOT
BRANCH   1   2
ATOM      2  C   UNL     1     -23.043 -23.924  29.373  1.00  0.00     0.000 C 
BRANCH   2   3
ATOM      3  C   UNL     1     -22.732 -23.616  30.851  1.00  0.00     0.000 C 
BRANCH   3   4
ATOM      4  C   UNL     1     -23.721 -24.237  31.852  1.00  0.00     0.000 C 
BRANCH   4   5
ATOM      5  C   UNL     1     -23.829 -25.764  31.700  1.00  0.00     0.000 C 
BRANCH   5   6
ATOM      6  C   UNL     1     -25.268 -26.279  31.879  1.00  0.00     0.000 C 
BRANCH   6   7
ATOM      7  C   UNL     1     -25.715 -27.311  30.825  1.00  0.00     0.000 C 
BRANCH   7   8
ATOM      8  C   UNL     1     -24.939 -27.271  29.491  1.00  0.00     0.000 C 
BRANCH   8   9
ATOM      9  C   UNL     1     -25.790 -26.934  28.251  1.00  0.00     0.000 C 
BRANCH   9  10
ATOM     10  C   UNL     1     -25.701 -28.012  27.159  1.00  0.00     0.006 C 
BRANCH  10  11
ATOM     11  C   UNL     1     -27.086 -28.524  26.734  1.00  0.00     0.053 C 
BRANCH  11  12
ATOM     12  C   UNL     1     -27.120 -28.919  25.289  1.00  0.00     0.041 C 
ATOM     13  O   UNL     1     -28.223 -29.085  24.703  1.00  0.00    -0.550 OA
ATOM     14  O   UNL     1     -25.935 -29.088  24.584  1.00  0.00    -0.550 OA
ENDBRANCH  11  12
ENDBRANCH  10  11
ENDBRANCH   9  10
ENDBRANCH   8   9
ENDBRANCH   7   8
ENDBRANCH   6   7
ENDBRANCH   5   6
ENDBRANCH   4   5
ENDBRANCH   3   4
ENDBRANCH   2   3
ENDBRANCH   1   2
BRANCH   1  15
ATOM     15  C   UNL     1     -22.022 -22.033  27.895  1.00  0.00     0.000 C 
BRANCH  15  16
ATOM     16  C   UNL     1     -22.239 -20.998  29.017  1.00  0.00     0.000 C 
BRANCH  16  17
ATOM     17  C   UNL     1     -21.212 -19.853  28.967  1.00  0.00     0.000 C 
BRANCH  17  18
ATOM     18  C   UNL     1     -21.172 -19.020  30.260  1.00  0.00    -0.000 C 
BRANCH  18  19
ATOM     19  C   UNL     1     -19.845 -19.075  31.036  1.00  0.00    -0.000 C 
BRANCH  19  20
ATOM     20  C   UNL     1     -18.707 -18.311  30.336  1.00  0.00    -0.000 C 
BRANCH  20  21
ATOM     21  C   UNL     1     -19.170 -16.960  29.769  1.00  0.00    -0.000 C 
BRANCH  21  22
ATOM     22  C   UNL     1     -18.178 -15.825  30.075  1.00  0.00    -0.000 C 
BRANCH  22  23
ATOM     23  C   UNL     1     -17.423 -15.344  28.823  1.00  0.00    -0.000 C 
BRANCH  23  24
ATOM     24  C   UNL     1     -18.075 -15.803  27.500  1.00  0.00    -0.000 C 
BRANCH  24  25
ATOM     25  C   UNL     1     -17.083 -15.787  26.328  1.00  0.00    -0.003 C 
ATOM     26  C   UNL     1     -17.753 -15.300  25.047  1.00  0.00     0.004 C 
ENDBRANCH  24  25
ENDBRANCH  23  24
ENDBRANCH  22  23
ENDBRANCH  21  22
ENDBRANCH  20  21
ENDBRANCH  19  20
ENDBRANCH  18  19
ENDBRANCH  17  18
ENDBRANCH  16  17
ENDBRANCH  15  16
ENDBRANCH   1  15
TORSDOF 22
ENDMDL
MODEL 8
REMARK VINA RESULT:    -5.691      4.993     12.083
REMARK INTER + INTRA:         -14.553
REMARK INTER:                 -13.141
REMARK INTRA:                  -1.411
REMARK UNBOUND:                -1.543
REMARK SMILES CCCCCCCCCCCCCCCCCCCCCCCC(=O)[O-]
REMARK SMILES IDX 13 1 14 2 15 3 16 4 17 5 18 6 19 7 20 8 21 9 22 10 23 11
REMARK SMILES IDX 24 12 25 13 26 14 12 15 11 16 10 17 9 18 8 19 7 20 6 21 5 22
REMARK SMILES IDX 4 23 3 24 2 25 1 26
REMARK H PARENT
REMARK Flexibility Score: inf
ROOT
ATOM      1  C   UNL     1     -21.591 -21.248  31.823  1.00  0.00     0.000 C 
ENDROOT
BRANCH   1   2
ATOM      2  C   UNL     1     -22.500 -21.974  30.810  1.00  0.00     0.000 C 
BRANCH   2   3
ATOM      3  C   UNL     1     -22.014 -23.373  30.380  1.00  0.00     0.000 C 
BRANCH   3   4
ATOM      4  C   UNL     1     -21.620 -23.480  28.897  1.00  0.00     0.000 C 
BRANCH   4   5
ATOM      5  C   UNL     1     -22.681 -24.215  28.059  1.00  0.00     0.000 C 
BRANCH   5   6
ATOM      6  C   UNL     1     -22.940 -25.649  28.554  1.00  0.00     0.000 C 
BRANCH   6   7
ATOM      7  C   UNL     1     -24.377 -26.156  28.324  1.00  0.00     0.000 C 
BRANCH   7   8
ATOM      8  C   UNL     1     -25.434 -25.620  29.315  1.00  0.00     0.000 C 
BRANCH   8   9
ATOM      9  C   UNL     1     -25.252 -26.080  30.774  1.00  0.00     0.000 C 
BRANCH   9  10
ATOM     10  C   UNL     1     -25.039 -27.598  30.896  1.00  0.00     0.006 C 
BRANCH  10  11
ATOM     11  C   UNL     1     -26.367 -28.371  30.923  1.00  0.00     0.053 C 
BRANCH  11  12
ATOM     12  C   UNL     1     -26.552 -29.214  29.698  1.00  0.00     0.041 C 
ATOM     13  O   UNL     1     -26.550 -30.470  29.787  1.00  0.00    -0.550 OA
ATOM     14  O   UNL     1     -26.744 -28.613  28.461  1.00  0.00    -0.550 OA
ENDBRANCH  11  12
ENDBRANCH  10  11
ENDBRANCH   9  10
ENDBRANCH   8   9
ENDBRANCH   7   8
ENDBRANCH   6   7
ENDBRANCH   5   6
ENDBRANCH   4   5
ENDBRANCH   3   4
ENDBRANCH   2   3
ENDBRANCH   1   2
BRANCH   1  15
ATOM     15  C   UNL     1     -20.831 -20.024  31.270  1.00  0.00     0.000 C 
BRANCH  15  16
ATOM     16  C   UNL     1     -21.312 -19.533  29.890  1.00  0.00     0.000 C 
BRANCH  16  17
ATOM     17  C   UNL     1     -20.343 -18.520  29.255  1.00  0.00     0.000 C 
BRANCH  17  18
ATOM     18  C   UNL     1     -19.083 -18.274  30.104  1.00  0.00    -0.000 C 
BRANCH  18  19
ATOM     19  C   UNL     1     -18.890 -16.827  30.589  1.00  0.00    -0.000 C 
BRANCH  19  20
ATOM     20  C   UNL     1     -18.193 -15.932  29.549  1.00  0.00    -0.000 C 
BRANCH  20  21
ATOM     21  C   UNL     1     -17.849 -16.691  28.258  1.00  0.00    -0.000 C 
BRANCH  21  22
ATOM     22  C   UNL     1     -17.255 -15.771  27.178  1.00  0.00    -0.000 C 
BRANCH  22  23
ATOM     23  C   UNL     1     -18.253 -15.462  26.049  1.00  0.00    -0.000 C 
BRANCH  23  24
ATOM     24  C   UNL     1     -17.572 -15.136  24.701  1.00  0.00    -0.000 C 
BRANCH  24  25
ATOM     25  C   UNL     1     -16.042 -15.239  24.783  1.00  0.00    -0.003 C 
ATOM     26  C   UNL     1     -15.509 -16.290  23.814  1.00  0.00     0.004 C 
ENDBRANCH  24  25
ENDBRANCH  23  24
ENDBRANCH  22  23
ENDBRANCH  21  22
ENDBRANCH  20  21
ENDBRANCH  19  20
ENDBRANCH  18  19
ENDBRANCH  17  18
ENDBRANCH  16  17
ENDBRANCH  15  16
ENDBRANCH   1  15
TORSDOF 22
ENDMDL
MODEL 9
REMARK VINA RESULT:    -5.677      1.199      2.236
REMARK INTER + INTRA:         -14.521
REMARK INTER:                 -12.856
REMARK INTRA:                  -1.665
REMARK UNBOUND:                -1.543
REMARK SMILES CCCCCCCCCCCCCCCCCCCCCCCC(=O)[O-]
REMARK SMILES IDX 13 1 14 2 15 3 16 4 17 5 18 6 19 7 20 8 21 9 22 10 23 11
REMARK SMILES IDX 24 12 25 13 26 14 12 15 11 16 10 17 9 18 8 19 7 20 6 21 5 22
REMARK SMILES IDX 4 23 3 24 2 25 1 26
REMARK H PARENT
REMARK Flexibility Score: inf
ROOT
ATOM      1  C   UNL     1     -22.014 -20.518  29.444  1.00  0.00     0.000 C 
ENDROOT
BRANCH   1   2
ATOM      2  C   UNL     1     -21.856 -21.070  30.875  1.00  0.00     0.000 C 
BRANCH   2   3
ATOM      3  C   UNL     1     -20.772 -20.380  31.727  1.00  0.00     0.000 C 
BRANCH   3   4
ATOM      4  C   UNL     1     -20.492 -18.919  31.338  1.00  0.00     0.000 C 
BRANCH   4   5
ATOM      5  C   UNL     1     -18.998 -18.561  31.439  1.00  0.00     0.000 C 
BRANCH   5   6
ATOM      6  C   UNL     1     -18.753 -17.043  31.487  1.00  0.00     0.000 C 
BRANCH   6   7
ATOM      7  C   UNL     1     -18.288 -16.427  30.153  1.00  0.00     0.000 C 
BRANCH   7   8
ATOM      8  C   UNL     1     -18.554 -17.289  28.900  1.00  0.00     0.000 C 
BRANCH   8   9
ATOM      9  C   UNL     1     -19.014 -16.506  27.655  1.00  0.00     0.000 C 
BRANCH   9  10
ATOM     10  C   UNL     1     -17.945 -15.529  27.140  1.00  0.00     0.006 C 
BRANCH  10  11
ATOM     11  C   UNL     1     -16.869 -16.234  26.301  1.00  0.00     0.053 C 
BRANCH  11  12
ATOM     12  C   UNL     1     -16.636 -15.545  24.990  1.00  0.00     0.041 C 
ATOM     13  O   UNL     1     -17.245 -14.477  24.718  1.00  0.00    -0.550 OA
ATOM     14  O   UNL     1     -15.734 -16.074  24.076  1.00  0.00    -0.550 OA
ENDBRANCH  11  12
ENDBRANCH  10  11
ENDBRANCH   9  10
ENDBRANCH   8   9
ENDBRANCH   7   8
ENDBRANCH   6   7
ENDBRANCH   5   6
ENDBRANCH   4   5
ENDBRANCH   3   4
ENDBRANCH   2   3
ENDBRANCH   1   2
BRANCH   1  15
ATOM     15  C   UNL     1     -22.537 -21.527  28.400  1.00  0.00     0.000 C 
BRANCH  15  16
ATOM     16  C   UNL     1     -21.797 -22.880  28.380  1.00  0.00     0.000 C 
BRANCH  16  17
ATOM     17  C   UNL     1     -22.759 -24.078  28.471  1.00  0.00     0.000 C 
BRANCH  17  18
ATOM     18  C   UNL     1     -22.699 -24.801  29.827  1.00  0.00    -0.000 C 
BRANCH  18  19
ATOM     19  C   UNL     1     -23.478 -24.125  30.967  1.00  0.00    -0.000 C 
BRANCH  19  20
ATOM     20  C   UNL     1     -24.252 -25.125  31.844  1.00  0.00    -0.000 C 
BRANCH  20  21
ATOM     21  C   UNL     1     -25.463 -25.729  31.116  1.00  0.00    -0.000 C 
BRANCH  21  22
ATOM     22  C   UNL     1     -25.568 -27.251  31.317  1.00  0.00    -0.000 C 
BRANCH  22  23
ATOM     23  C   UNL     1     -25.869 -28.001  30.008  1.00  0.00    -0.000 C 
BRANCH  23  24
ATOM     24  C   UNL     1     -25.325 -27.286  28.752  1.00  0.00    -0.000 C 
BRANCH  24  25
ATOM     25  C   UNL     1     -26.152 -27.606  27.498  1.00  0.00    -0.003 C 
ATOM     26  C   UNL     1     -26.961 -28.886  27.684  1.00  0.00     0.004 C 
ENDBRANCH  24  25
ENDBRANCH  23  24
ENDBRANCH  22  23
ENDBRANCH  21  22
ENDBRANCH  20  21
ENDBRANCH  19  20
ENDBRANCH  18  19
ENDBRANCH  17  18
ENDBRANCH  16  17
ENDBRANCH  15  16
ENDBRANCH   1  15
TORSDOF 22
ENDMDL
