MODEL 1
REMARK VINA RESULT:    -7.369      0.000      0.000
REMARK INTER + INTRA:          -8.963
REMARK INTER:                  -8.661
REMARK INTRA:                  -0.302
REMARK UNBOUND:                -0.302
REMARK SMILES O=c1cc(-c2ccc(O)c(O)c2)oc2cc(O)cc(O)c12
REMARK SMILES IDX 4 1 3 2 2 3 1 4 21 5 19 6 18 7 16 8 15 9 14 10 13 11 5 12
REMARK SMILES IDX 6 13 7 14 8 15 12 16 10 17 9 18 11 20 20 22 17 24
REMARK H PARENT 9 19 11 21 20 23 17 25
REMARK Flexibility Score: inf
ROOT
ATOM      1  C   UNL     1      -0.401 -10.039 -40.859  1.00  0.00     0.138 A 
ATOM      2  C   UNL     1      -1.370  -9.636 -41.788  1.00  0.00     0.100 A 
ATOM      3  C   UNL     1      -1.408  -8.307 -42.212  1.00  0.00     0.197 A 
ATOM      4  O   UNL     1      -2.323  -7.963 -43.003  1.00  0.00    -0.289 OA
ATOM      5  C   UNL     1      -0.448  -7.385 -41.728  1.00  0.00     0.107 A 
ATOM      6  C   UNL     1      -0.369  -6.014 -42.116  1.00  0.00     0.134 A 
ATOM      7  C   UNL     1       0.564  -5.174 -41.494  1.00  0.00     0.093 A 
ATOM      8  C   UNL     1       1.458  -5.669 -40.542  1.00  0.00     0.123 A 
ATOM      9  C   UNL     1       1.422  -7.017 -40.194  1.00  0.00     0.094 A 
ATOM     10  C   UNL     1       0.480  -7.873 -40.770  1.00  0.00     0.146 A 
ATOM     11  O   UNL     1       0.469  -9.148 -40.396  1.00  0.00    -0.456 OA
ENDROOT
BRANCH   1  12
ATOM     12  C   UNL     1      -0.312 -11.440 -40.376  1.00  0.00     0.021 A 
ATOM     13  C   UNL     1      -1.488 -12.195 -40.222  1.00  0.00     0.016 A 
ATOM     14  C   UNL     1      -1.430 -13.517 -39.775  1.00  0.00     0.051 A 
ATOM     15  C   UNL     1      -0.197 -14.113 -39.485  1.00  0.00     0.157 A 
ATOM     16  C   UNL     1       0.927 -12.050 -40.094  1.00  0.00     0.062 A 
ATOM     17  C   UNL     1       0.987 -13.375 -39.649  1.00  0.00     0.158 A 
BRANCH  15  18
ATOM     18  O   UNL     1      -0.144 -15.432 -39.039  1.00  0.00    -0.504 OA
ATOM     19  H   UNL     1      -0.566 -15.713 -38.161  1.00  0.00     0.293 HD
ENDBRANCH  15  18
BRANCH  17  20
ATOM     20  O   UNL     1       2.231 -13.944 -39.379  1.00  0.00    -0.504 OA
ATOM     21  H   UNL     1       2.806 -14.353 -40.105  1.00  0.00     0.293 HD
ENDBRANCH  17  20
ENDBRANCH   1  12
BRANCH   6  22
ATOM     22  O   UNL     1      -1.159  -5.433 -43.113  1.00  0.00    -0.507 OA
ATOM     23  H   UNL     1      -1.948  -4.827 -42.947  1.00  0.00     0.293 HD
ENDBRANCH   6  22
BRANCH   8  24
ATOM     24  O   UNL     1       2.393  -4.829 -39.940  1.00  0.00    -0.508 OA
ATOM     25  H   UNL     1       2.448  -4.733 -38.934  1.00  0.00     0.293 HD
ENDBRANCH   8  24
TORSDOF 5
ENDMDL
MODEL 2
REMARK VINA RESULT:    -7.304      2.660      7.297
REMARK INTER + INTRA:          -8.886
REMARK INTER:                  -8.585
REMARK INTRA:                  -0.301
REMARK UNBOUND:                -0.302
REMARK SMILES O=c1cc(-c2ccc(O)c(O)c2)oc2cc(O)cc(O)c12
REMARK SMILES IDX 4 1 3 2 2 3 1 4 21 5 19 6 18 7 16 8 15 9 14 10 13 11 5 12
REMARK SMILES IDX 6 13 7 14 8 15 12 16 10 17 9 18 11 20 20 22 17 24
REMARK H PARENT 9 19 11 21 20 23 17 25
REMARK Flexibility Score: inf
ROOT
ATOM      1  C   UNL     1       2.216  -9.367 -40.644  1.00  0.00     0.138 A 
ATOM      2  C   UNL     1       2.898 -10.472 -41.172  1.00  0.00     0.100 A 
ATOM      3  C   UNL     1       2.745 -11.725 -40.579  1.00  0.00     0.197 A 
ATOM      4  O   UNL     1       3.414 -12.685 -41.040  1.00  0.00    -0.289 OA
ATOM      5  C   UNL     1       1.876 -11.880 -39.471  1.00  0.00     0.107 A 
ATOM      6  C   UNL     1       1.616 -13.115 -38.806  1.00  0.00     0.134 A 
ATOM      7  C   UNL     1       0.813 -13.125 -37.659  1.00  0.00     0.093 A 
ATOM      8  C   UNL     1       0.214 -11.955 -37.188  1.00  0.00     0.123 A 
ATOM      9  C   UNL     1       0.421 -10.753 -37.859  1.00  0.00     0.094 A 
ATOM     10  C   UNL     1       1.245 -10.703 -38.985  1.00  0.00     0.146 A 
ATOM     11  O   UNL     1       1.430  -9.531 -39.585  1.00  0.00    -0.456 OA
ENDROOT
BRANCH   1  12
ATOM     12  C   UNL     1       2.338  -8.012 -41.238  1.00  0.00     0.021 A 
ATOM     13  C   UNL     1       2.450  -7.875 -42.632  1.00  0.00     0.016 A 
ATOM     14  C   UNL     1       2.560  -6.611 -43.215  1.00  0.00     0.051 A 
ATOM     15  C   UNL     1       2.549  -5.459 -42.418  1.00  0.00     0.157 A 
ATOM     16  C   UNL     1       2.314  -6.849 -40.441  1.00  0.00     0.062 A 
ATOM     17  C   UNL     1       2.421  -5.581 -41.024  1.00  0.00     0.158 A 
BRANCH  15  18
ATOM     18  O   UNL     1       2.659  -4.200 -43.003  1.00  0.00    -0.504 OA
ATOM     19  H   UNL     1       2.633  -3.352 -42.448  1.00  0.00     0.293 HD
ENDBRANCH  15  18
BRANCH  17  20
ATOM     20  O   UNL     1       2.395  -4.454 -40.204  1.00  0.00    -0.504 OA
ATOM     21  H   UNL     1       1.864  -3.625 -40.443  1.00  0.00     0.293 HD
ENDBRANCH  17  20
ENDBRANCH   1  12
BRANCH   6  22
ATOM     22  O   UNL     1       2.099 -14.355 -39.238  1.00  0.00    -0.507 OA
ATOM     23  H   UNL     1       2.070 -14.689 -40.189  1.00  0.00     0.293 HD
ENDBRANCH   6  22
BRANCH   8  24
ATOM     24  O   UNL     1      -0.597 -11.978 -36.054  1.00  0.00    -0.508 OA
ATOM     25  H   UNL     1      -0.911 -12.850 -35.645  1.00  0.00     0.293 HD
ENDBRANCH   8  24
TORSDOF 5
ENDMDL
MODEL 3
REMARK VINA RESULT:    -7.299      1.098      2.692
REMARK INTER + INTRA:          -8.880
REMARK INTER:                  -8.586
REMARK INTRA:                  -0.294
REMARK UNBOUND:                -0.302
REMARK SMILES O=c1cc(-c2ccc(O)c(O)c2)oc2cc(O)cc(O)c12
REMARK SMILES IDX 4 1 3 2 2 3 1 4 21 5 19 6 18 7 16 8 15 9 14 10 13 11 5 12
REMARK SMILES IDX 6 13 7 14 8 15 12 16 10 17 9 18 11 20 20 22 17 24
REMARK H PARENT 9 19 11 21 20 23 17 25
REMARK Flexibility Score: inf
ROOT
ATOM      1  C   UNL     1       0.471 -10.098 -40.006  1.00  0.00     0.138 A 
ATOM      2  C   UNL     1       1.506  -9.426 -39.342  1.00  0.00     0.100 A 
ATOM      3  C   UNL     1       1.709  -8.066 -39.579  1.00  0.00     0.197 A 
ATOM      4  O   UNL     1       2.680  -7.504 -39.011  1.00  0.00    -0.289 OA
ATOM      5  C   UNL     1       0.847  -7.368 -40.460  1.00  0.00     0.107 A 
ATOM      6  C   UNL     1       0.937  -5.974 -40.753  1.00  0.00     0.134 A 
ATOM      7  C   UNL     1       0.089  -5.416 -41.718  1.00  0.00     0.093 A 
ATOM      8  C   UNL     1      -0.883  -6.188 -42.357  1.00  0.00     0.123 A 
ATOM      9  C   UNL     1      -1.012  -7.538 -42.042  1.00  0.00     0.094 A 
ATOM     10  C   UNL     1      -0.159  -8.133 -41.110  1.00  0.00     0.146 A 
ATOM     11  O   UNL     1      -0.305  -9.429 -40.852  1.00  0.00    -0.456 OA
ENDROOT
BRANCH   1  12
ATOM     12  C   UNL     1       0.207 -11.543 -39.789  1.00  0.00     0.021 A 
ATOM     13  C   UNL     1      -1.012 -12.096 -40.219  1.00  0.00     0.016 A 
ATOM     14  C   UNL     1      -1.282 -13.453 -40.032  1.00  0.00     0.051 A 
ATOM     15  C   UNL     1      -0.335 -14.286 -39.424  1.00  0.00     0.157 A 
ATOM     16  C   UNL     1       1.161 -12.390 -39.188  1.00  0.00     0.062 A 
ATOM     17  C   UNL     1       0.893 -13.751 -39.003  1.00  0.00     0.158 A 
BRANCH  15  18
ATOM     18  O   UNL     1      -0.609 -15.640 -39.238  1.00  0.00    -0.504 OA
ATOM     19  H   UNL     1      -0.358 -16.121 -38.382  1.00  0.00     0.293 HD
ENDBRANCH  15  18
BRANCH  17  20
ATOM     20  O   UNL     1       1.861 -14.556 -38.404  1.00  0.00    -0.504 OA
ATOM     21  H   UNL     1       1.887 -15.560 -38.539  1.00  0.00     0.293 HD
ENDBRANCH  17  20
ENDBRANCH   1  12
BRANCH   6  22
ATOM     22  O   UNL     1       1.818  -5.094 -40.116  1.00  0.00    -0.507 OA
ATOM     23  H   UNL     1       2.249  -4.292 -40.548  1.00  0.00     0.293 HD
ENDBRANCH   6  22
BRANCH   8  24
ATOM     24  O   UNL     1      -1.732  -5.620 -43.305  1.00  0.00    -0.508 OA
ATOM     25  H   UNL     1      -2.110  -4.688 -43.187  1.00  0.00     0.293 HD
ENDBRANCH   8  24
TORSDOF 5
ENDMDL
MODEL 4
REMARK VINA RESULT:    -7.173      6.697      7.721
REMARK INTER + INTRA:          -8.733
REMARK INTER:                  -8.437
REMARK INTRA:                  -0.295
REMARK UNBOUND:                -0.302
REMARK SMILES O=c1cc(-c2ccc(O)c(O)c2)oc2cc(O)cc(O)c12
REMARK SMILES IDX 4 1 3 2 2 3 1 4 21 5 19 6 18 7 16 8 15 9 14 10 13 11 5 12
REMARK SMILES IDX 6 13 7 14 8 15 12 16 10 17 9 18 11 20 20 22 17 24
REMARK H PARENT 9 19 11 21 20 23 17 25
REMARK Flexibility Score: inf
ROOT
ATOM      1  C   UNL     1       6.991  -8.559 -40.794  1.00  0.00     0.138 A 
ATOM      2  C   UNL     1       6.269  -7.612 -41.532  1.00  0.00     0.100 A 
ATOM      3  C   UNL     1       6.418  -6.255 -41.245  1.00  0.00     0.197 A 
ATOM      4  O   UNL     1       5.715  -5.432 -41.886  1.00  0.00    -0.289 OA
ATOM      5  C   UNL     1       7.322  -5.842 -40.236  1.00  0.00     0.107 A 
ATOM      6  C   UNL     1       7.581  -4.485 -39.879  1.00  0.00     0.134 A 
ATOM      7  C   UNL     1       8.424  -4.205 -38.796  1.00  0.00     0.093 A 
ATOM      8  C   UNL     1       9.062  -5.231 -38.095  1.00  0.00     0.123 A 
ATOM      9  C   UNL     1       8.855  -6.556 -38.467  1.00  0.00     0.094 A 
ATOM     10  C   UNL     1       7.993  -6.871 -39.520  1.00  0.00     0.146 A 
ATOM     11  O   UNL     1       7.810  -8.150 -39.831  1.00  0.00    -0.456 OA
ENDROOT
BRANCH   1  12
ATOM     12  C   UNL     1       6.875 -10.016 -41.059  1.00  0.00     0.021 A 
ATOM     13  C   UNL     1       6.858 -10.478 -42.386  1.00  0.00     0.016 A 
ATOM     14  C   UNL     1       6.755 -11.843 -42.662  1.00  0.00     0.051 A 
ATOM     15  C   UNL     1       6.680 -12.773 -41.617  1.00  0.00     0.157 A 
ATOM     16  C   UNL     1       6.812 -10.957 -40.011  1.00  0.00     0.062 A 
ATOM     17  C   UNL     1       6.712 -12.326 -40.286  1.00  0.00     0.158 A 
BRANCH  15  18
ATOM     18  O   UNL     1       6.577 -14.134 -41.896  1.00  0.00    -0.504 OA
ATOM     19  H   UNL     1       6.400 -14.472 -42.836  1.00  0.00     0.293 HD
ENDBRANCH  15  18
BRANCH  17  20
ATOM     20  O   UNL     1       6.651 -13.227 -39.224  1.00  0.00    -0.504 OA
ATOM     21  H   UNL     1       6.810 -12.942 -38.265  1.00  0.00     0.293 HD
ENDBRANCH  17  20
ENDBRANCH   1  12
BRANCH   6  22
ATOM     22  O   UNL     1       7.059  -3.381 -40.562  1.00  0.00    -0.507 OA
ATOM     23  H   UNL     1       7.079  -3.256 -41.562  1.00  0.00     0.293 HD
ENDBRANCH   6  22
BRANCH   8  24
ATOM     24  O   UNL     1       9.911  -4.941 -37.028  1.00  0.00    -0.508 OA
ATOM     25  H   UNL     1       9.711  -4.188 -36.381  1.00  0.00     0.293 HD
ENDBRANCH   8  24
TORSDOF 5
ENDMDL
MODEL 5
REMARK VINA RESULT:    -7.108      2.564      2.817
REMARK INTER + INTRA:          -8.657
REMARK INTER:                  -8.348
REMARK INTRA:                  -0.309
REMARK UNBOUND:                -0.302
REMARK SMILES O=c1cc(-c2ccc(O)c(O)c2)oc2cc(O)cc(O)c12
REMARK SMILES IDX 4 1 3 2 2 3 1 4 21 5 19 6 18 7 16 8 15 9 14 10 13 11 5 12
REMARK SMILES IDX 6 13 7 14 8 15 12 16 10 17 9 18 11 20 20 22 17 24
REMARK H PARENT 9 19 11 21 20 23 17 25
REMARK Flexibility Score: inf
ROOT
ATOM      1  C   UNL     1       1.486 -10.366 -40.389  1.00  0.00     0.138 A 
ATOM      2  C   UNL     1       1.680 -10.621 -41.754  1.00  0.00     0.100 A 
ATOM      3  C   UNL     1       2.016  -9.572 -42.611  1.00  0.00     0.197 A 
ATOM      4  O   UNL     1       2.129  -9.822 -43.838  1.00  0.00    -0.289 OA
ATOM      5  C   UNL     1       2.193  -8.266 -42.091  1.00  0.00     0.107 A 
ATOM      6  C   UNL     1       2.568  -7.126 -42.863  1.00  0.00     0.134 A 
ATOM      7  C   UNL     1       2.616  -5.866 -42.255  1.00  0.00     0.093 A 
ATOM      8  C   UNL     1       2.359  -5.714 -40.891  1.00  0.00     0.123 A 
ATOM      9  C   UNL     1       2.041  -6.828 -40.118  1.00  0.00     0.094 A 
ATOM     10  C   UNL     1       1.951  -8.093 -40.702  1.00  0.00     0.146 A 
ATOM     11  O   UNL     1       1.627  -9.126 -39.931  1.00  0.00    -0.456 OA
ENDROOT
BRANCH   1  12
ATOM     12  C   UNL     1       1.131 -11.443 -39.432  1.00  0.00     0.021 A 
ATOM     13  C   UNL     1       1.518 -12.767 -39.706  1.00  0.00     0.016 A 
ATOM     14  C   UNL     1       1.202 -13.798 -38.818  1.00  0.00     0.051 A 
ATOM     15  C   UNL     1       0.504 -13.524 -37.635  1.00  0.00     0.157 A 
ATOM     16  C   UNL     1       0.441 -11.173 -38.233  1.00  0.00     0.062 A 
ATOM     17  C   UNL     1       0.125 -12.204 -37.341  1.00  0.00     0.158 A 
BRANCH  15  18
ATOM     18  O   UNL     1       0.190 -14.556 -36.753  1.00  0.00    -0.504 OA
ATOM     19  H   UNL     1      -0.769 -14.838 -36.584  1.00  0.00     0.293 HD
ENDBRANCH  15  18
BRANCH  17  20
ATOM     20  O   UNL     1      -0.560 -11.898 -36.166  1.00  0.00    -0.504 OA
ATOM     21  H   UNL     1      -1.139 -12.577 -35.687  1.00  0.00     0.293 HD
ENDBRANCH  17  20
ENDBRANCH   1  12
BRANCH   6  22
ATOM     22  O   UNL     1       2.923  -7.177 -44.216  1.00  0.00    -0.507 OA
ATOM     23  H   UNL     1       2.413  -7.673 -44.930  1.00  0.00     0.293 HD
ENDBRANCH   6  22
BRANCH   8  24
ATOM     24  O   UNL     1       2.424  -4.457 -40.291  1.00  0.00    -0.508 OA
ATOM     25  H   UNL     1       1.592  -3.983 -39.963  1.00  0.00     0.293 HD
ENDBRANCH   8  24
TORSDOF 5
ENDMDL
MODEL 6
REMARK VINA RESULT:    -6.939      2.927      3.973
REMARK INTER + INTRA:          -8.457
REMARK INTER:                  -8.181
REMARK INTRA:                  -0.277
REMARK UNBOUND:                -0.302
REMARK SMILES O=c1cc(-c2ccc(O)c(O)c2)oc2cc(O)cc(O)c12
REMARK SMILES IDX 4 1 3 2 2 3 1 4 21 5 19 6 18 7 16 8 15 9 14 10 13 11 5 12
REMARK SMILES IDX 6 13 7 14 8 15 12 16 10 17 9 18 11 20 20 22 17 24
REMARK H PARENT 9 19 11 21 20 23 17 25
REMARK Flexibility Score: inf
ROOT
ATOM      1  C   UNL     1       1.776 -10.288 -40.220  1.00  0.00     0.138 A 
ATOM      2  C   UNL     1       2.370  -9.122 -39.718  1.00  0.00     0.100 A 
ATOM      3  C   UNL     1       2.776  -8.120 -40.599  1.00  0.00     0.197 A 
ATOM      4  O   UNL     1       3.356  -7.110 -40.123  1.00  0.00    -0.289 OA
ATOM      5  C   UNL     1       2.555  -8.272 -41.990  1.00  0.00     0.107 A 
ATOM      6  C   UNL     1       2.898  -7.303 -42.980  1.00  0.00     0.134 A 
ATOM      7  C   UNL     1       2.720  -7.608 -44.335  1.00  0.00     0.093 A 
ATOM      8  C   UNL     1       2.160  -8.824 -44.732  1.00  0.00     0.123 A 
ATOM      9  C   UNL     1       1.777  -9.756 -43.772  1.00  0.00     0.094 A 
ATOM     10  C   UNL     1       1.973  -9.497 -42.414  1.00  0.00     0.146 A 
ATOM     11  O   UNL     1       1.608 -10.421 -41.531  1.00  0.00    -0.456 OA
ENDROOT
BRANCH   1  12
ATOM     12  C   UNL     1       1.321 -11.385 -39.328  1.00  0.00     0.021 A 
ATOM     13  C   UNL     1       1.667 -12.712 -39.634  1.00  0.00     0.016 A 
ATOM     14  C   UNL     1       1.256 -13.762 -38.808  1.00  0.00     0.051 A 
ATOM     15  C   UNL     1       0.504 -13.503 -37.656  1.00  0.00     0.157 A 
ATOM     16  C   UNL     1       0.575 -11.129 -38.160  1.00  0.00     0.062 A 
ATOM     17  C   UNL     1       0.165 -12.179 -37.330  1.00  0.00     0.158 A 
BRANCH  15  18
ATOM     18  O   UNL     1       0.096 -14.552 -36.835  1.00  0.00    -0.504 OA
ATOM     19  H   UNL     1      -0.883 -14.712 -36.624  1.00  0.00     0.293 HD
ENDBRANCH  15  18
BRANCH  17  20
ATOM     20  O   UNL     1      -0.574 -11.888 -36.184  1.00  0.00    -0.504 OA
ATOM     21  H   UNL     1      -1.567 -12.073 -36.122  1.00  0.00     0.293 HD
ENDBRANCH  17  20
ENDBRANCH   1  12
BRANCH   6  22
ATOM     22  O   UNL     1       3.390  -6.026 -42.690  1.00  0.00    -0.507 OA
ATOM     23  H   UNL     1       3.668  -5.706 -41.775  1.00  0.00     0.293 HD
ENDBRANCH   6  22
BRANCH   8  24
ATOM     24  O   UNL     1       1.974  -9.113 -46.083  1.00  0.00    -0.508 OA
ATOM     25  H   UNL     1       1.082  -8.961 -46.539  1.00  0.00     0.293 HD
ENDBRANCH   8  24
TORSDOF 5
ENDMDL
MODEL 7
REMARK VINA RESULT:    -6.923      4.131      5.582
REMARK INTER + INTRA:          -8.439
REMARK INTER:                  -8.170
REMARK INTRA:                  -0.268
REMARK UNBOUND:                -0.302
REMARK SMILES O=c1cc(-c2ccc(O)c(O)c2)oc2cc(O)cc(O)c12
REMARK SMILES IDX 4 1 3 2 2 3 1 4 21 5 19 6 18 7 16 8 15 9 14 10 13 11 5 12
REMARK SMILES IDX 6 13 7 14 8 15 12 16 10 17 9 18 11 20 20 22 17 24
REMARK H PARENT 9 19 11 21 20 23 17 25
REMARK Flexibility Score: inf
ROOT
ATOM      1  C   UNL     1       2.762 -11.505 -40.807  1.00  0.00     0.138 A 
ATOM      2  C   UNL     1       4.079 -11.981 -40.869  1.00  0.00     0.100 A 
ATOM      3  C   UNL     1       4.826 -11.794 -42.033  1.00  0.00     0.197 A 
ATOM      4  O   UNL     1       5.985 -12.281 -42.078  1.00  0.00    -0.289 OA
ATOM      5  C   UNL     1       4.262 -11.096 -43.128  1.00  0.00     0.107 A 
ATOM      6  C   UNL     1       4.940 -10.817 -44.352  1.00  0.00     0.134 A 
ATOM      7  C   UNL     1       4.245 -10.204 -45.402  1.00  0.00     0.093 A 
ATOM      8  C   UNL     1       2.914  -9.808 -45.252  1.00  0.00     0.123 A 
ATOM      9  C   UNL     1       2.259 -10.031 -44.043  1.00  0.00     0.094 A 
ATOM     10  C   UNL     1       2.913 -10.672 -42.990  1.00  0.00     0.146 A 
ATOM     11  O   UNL     1       2.244 -10.880 -41.860  1.00  0.00    -0.456 OA
ENDROOT
BRANCH   1  12
ATOM     12  C   UNL     1       1.923 -11.672 -39.594  1.00  0.00     0.021 A 
ATOM     13  C   UNL     1       1.393 -10.536 -38.958  1.00  0.00     0.016 A 
ATOM     14  C   UNL     1       0.595 -10.666 -37.819  1.00  0.00     0.051 A 
ATOM     15  C   UNL     1       0.302 -11.934 -37.301  1.00  0.00     0.157 A 
ATOM     16  C   UNL     1       1.614 -12.946 -39.076  1.00  0.00     0.062 A 
ATOM     17  C   UNL     1       0.812 -13.078 -37.936  1.00  0.00     0.158 A 
BRANCH  15  18
ATOM     18  O   UNL     1      -0.493 -12.060 -36.164  1.00  0.00    -0.504 OA
ATOM     19  H   UNL     1      -1.332 -12.630 -36.163  1.00  0.00     0.293 HD
ENDBRANCH  15  18
BRANCH  17  20
ATOM     20  O   UNL     1       0.530 -14.355 -37.451  1.00  0.00    -0.504 OA
ATOM     21  H   UNL     1      -0.124 -14.975 -37.915  1.00  0.00     0.293 HD
ENDBRANCH  17  20
ENDBRANCH   1  12
BRANCH   6  22
ATOM     22  O   UNL     1       6.292 -11.097 -44.582  1.00  0.00    -0.507 OA
ATOM     23  H   UNL     1       6.931 -11.469 -43.897  1.00  0.00     0.293 HD
ENDBRANCH   6  22
BRANCH   8  24
ATOM     24  O   UNL     1       2.236  -9.185 -46.297  1.00  0.00    -0.508 OA
ATOM     25  H   UNL     1       2.498  -8.263 -46.625  1.00  0.00     0.293 HD
ENDBRANCH   8  24
TORSDOF 5
ENDMDL
MODEL 8
REMARK VINA RESULT:    -6.916      1.953      3.441
REMARK INTER + INTRA:          -8.431
REMARK INTER:                  -8.164
REMARK INTRA:                  -0.267
REMARK UNBOUND:                -0.302
REMARK SMILES O=c1cc(-c2ccc(O)c(O)c2)oc2cc(O)cc(O)c12
REMARK SMILES IDX 4 1 3 2 2 3 1 4 21 5 19 6 18 7 16 8 15 9 14 10 13 11 5 12
REMARK SMILES IDX 6 13 7 14 8 15 12 16 10 17 9 18 11 20 20 22 17 24
REMARK H PARENT 9 19 11 21 20 23 17 25
REMARK Flexibility Score: inf
ROOT
ATOM      1  C   UNL     1       1.450  -9.172 -39.760  1.00  0.00     0.138 A 
ATOM      2  C   UNL     1       2.692  -8.524 -39.692  1.00  0.00     0.100 A 
ATOM      3  C   UNL     1       2.877  -7.316 -40.364  1.00  0.00     0.197 A 
ATOM      4  O   UNL     1       4.018  -6.788 -40.329  1.00  0.00    -0.289 OA
ATOM      5  C   UNL     1       1.802  -6.735 -41.080  1.00  0.00     0.107 A 
ATOM      6  C   UNL     1       1.865  -5.490 -41.775  1.00  0.00     0.134 A 
ATOM      7  C   UNL     1       0.765  -5.066 -42.531  1.00  0.00     0.093 A 
ATOM      8  C   UNL     1      -0.414  -5.812 -42.569  1.00  0.00     0.123 A 
ATOM      9  C   UNL     1      -0.503  -7.003 -41.853  1.00  0.00     0.094 A 
ATOM     10  C   UNL     1       0.588  -7.472 -41.119  1.00  0.00     0.146 A 
ATOM     11  O   UNL     1       0.466  -8.622 -40.464  1.00  0.00    -0.456 OA
ENDROOT
BRANCH   1  12
ATOM     12  C   UNL     1       1.195 -10.457 -39.062  1.00  0.00     0.021 A 
ATOM     13  C   UNL     1       1.661 -11.656 -39.629  1.00  0.00     0.016 A 
ATOM     14  C   UNL     1       1.440 -12.878 -38.990  1.00  0.00     0.051 A 
ATOM     15  C   UNL     1       0.759 -12.923 -37.767  1.00  0.00     0.157 A 
ATOM     16  C   UNL     1       0.522 -10.508 -37.825  1.00  0.00     0.062 A 
ATOM     17  C   UNL     1       0.302 -11.731 -37.181  1.00  0.00     0.158 A 
BRANCH  15  18
ATOM     18  O   UNL     1       0.540 -14.144 -37.132  1.00  0.00    -0.504 OA
ATOM     19  H   UNL     1       0.848 -14.312 -36.181  1.00  0.00     0.293 HD
ENDBRANCH  15  18
BRANCH  17  20
ATOM     20  O   UNL     1      -0.369 -11.743 -35.959  1.00  0.00    -0.504 OA
ATOM     21  H   UNL     1      -0.438 -12.577 -35.389  1.00  0.00     0.293 HD
ENDBRANCH  17  20
ENDBRANCH   1  12
BRANCH   6  22
ATOM     22  O   UNL     1       2.965  -4.627 -41.740  1.00  0.00    -0.507 OA
ATOM     23  H   UNL     1       3.305  -4.154 -40.917  1.00  0.00     0.293 HD
ENDBRANCH   6  22
BRANCH   8  24
ATOM     24  O   UNL     1      -1.509  -5.373 -43.311  1.00  0.00    -0.508 OA
ATOM     25  H   UNL     1      -1.392  -4.832 -44.159  1.00  0.00     0.293 HD
ENDBRANCH   8  24
TORSDOF 5
ENDMDL
MODEL 9
REMARK VINA RESULT:    -6.891      7.805      9.351
REMARK INTER + INTRA:          -8.402
REMARK INTER:                  -8.135
REMARK INTRA:                  -0.266
REMARK UNBOUND:                -0.302
REMARK SMILES O=c1cc(-c2ccc(O)c(O)c2)oc2cc(O)cc(O)c12
REMARK SMILES IDX 4 1 3 2 2 3 1 4 21 5 19 6 18 7 16 8 15 9 14 10 13 11 5 12
REMARK SMILES IDX 6 13 7 14 8 15 12 16 10 17 9 18 11 20 20 22 17 24
REMARK H PARENT 9 19 11 21 20 23 17 25
REMARK Flexibility Score: inf
ROOT
ATOM      1  C   UNL     1       8.929  -8.724 -40.897  1.00  0.00     0.138 A 
ATOM      2  C   UNL     1      10.320  -8.557 -40.881  1.00  0.00     0.100 A 
ATOM      3  C   UNL     1      10.861  -7.287 -40.674  1.00  0.00     0.197 A 
ATOM      4  O   UNL     1      12.111  -7.160 -40.721  1.00  0.00    -0.289 OA
ATOM      5  C   UNL     1      10.002  -6.184 -40.447  1.00  0.00     0.107 A 
ATOM      6  C   UNL     1      10.440  -4.850 -40.191  1.00  0.00     0.134 A 
ATOM      7  C   UNL     1       9.494  -3.823 -40.080  1.00  0.00     0.093 A 
ATOM      8  C   UNL     1       8.126  -4.091 -40.157  1.00  0.00     0.123 A 
ATOM      9  C   UNL     1       7.687  -5.398 -40.356  1.00  0.00     0.094 A 
ATOM     10  C   UNL     1       8.605  -6.439 -40.507  1.00  0.00     0.146 A 
ATOM     11  O   UNL     1       8.143  -7.668 -40.713  1.00  0.00    -0.456 OA
ENDROOT
BRANCH   1  12
ATOM     12  C   UNL     1       8.300 -10.052 -41.109  1.00  0.00     0.021 A 
ATOM     13  C   UNL     1       7.846 -10.405 -42.392  1.00  0.00     0.016 A 
ATOM     14  C   UNL     1       7.256 -11.650 -42.619  1.00  0.00     0.051 A 
ATOM     15  C   UNL     1       7.119 -12.570 -41.572  1.00  0.00     0.157 A 
ATOM     16  C   UNL     1       8.170 -10.987 -40.062  1.00  0.00     0.062 A 
ATOM     17  C   UNL     1       7.582 -12.236 -40.289  1.00  0.00     0.158 A 
BRANCH  15  18
ATOM     18  O   UNL     1       6.529 -13.811 -41.803  1.00  0.00    -0.504 OA
ATOM     19  H   UNL     1       5.636 -13.896 -42.275  1.00  0.00     0.293 HD
ENDBRANCH  15  18
BRANCH  17  20
ATOM     20  O   UNL     1       7.470 -13.135 -39.228  1.00  0.00    -0.504 OA
ATOM     21  H   UNL     1       8.187 -13.819 -39.023  1.00  0.00     0.293 HD
ENDBRANCH  17  20
ENDBRANCH   1  12
BRANCH   6  22
ATOM     22  O   UNL     1      11.778  -4.484 -40.017  1.00  0.00    -0.507 OA
ATOM     23  H   UNL     1      12.408  -4.891 -39.343  1.00  0.00     0.293 HD
ENDBRANCH   6  22
BRANCH   8  24
ATOM     24  O   UNL     1       7.192  -3.064 -40.029  1.00  0.00    -0.508 OA
ATOM     25  H   UNL     1       6.569  -3.011 -39.233  1.00  0.00     0.293 HD
ENDBRANCH   8  24
TORSDOF 5
ENDMDL
