MODEL 1
REMARK VINA RESULT:     9.201      0.000      0.000
REMARK INTER + INTRA:          14.952
REMARK INTER:                  15.656
REMARK INTRA:                  -0.705
REMARK UNBOUND:                -0.705
REMARK SMILES CCCCCCCCCCCCCC(=O)[O-]
REMARK SMILES IDX 8 1 9 2 10 3 11 4 12 5 13 6 14 7 15 8 16 9 7 10 6 11 5 12
REMARK SMILES IDX 4 13 3 14 2 15 1 16
REMARK H PARENT
REMARK Flexibility Score: inf
ROOT
ATOM      1  C   UNL     1       8.314  48.585  10.839  1.00  0.00     0.000 C 
ENDROOT
BRANCH   1   2
ATOM      2  C   UNL     1       8.535  47.542   9.737  1.00  0.00     0.000 C 
BRANCH   2   3
ATOM      3  C   UNL     1       9.770  47.882   8.894  1.00  0.00     0.000 C 
BRANCH   3   4
ATOM      4  C   UNL     1      10.777  46.724   8.900  1.00  0.00     0.000 C 
BRANCH   4   5
ATOM      5  C   UNL     1      12.236  47.206   8.915  1.00  0.00     0.006 C 
BRANCH   5   6
ATOM      6  C   UNL     1      13.183  46.198   9.580  1.00  0.00     0.053 C 
BRANCH   6   7
ATOM      7  C   UNL     1      14.345  46.906  10.202  1.00  0.00     0.041 C 
ATOM      8  O   UNL     1      14.367  47.119  11.443  1.00  0.00    -0.550 OA
ATOM      9  O   UNL     1      15.381  47.378   9.404  1.00  0.00    -0.550 OA
ENDBRANCH   6   7
ENDBRANCH   5   6
ENDBRANCH   4   5
ENDBRANCH   3   4
ENDBRANCH   2   3
ENDBRANCH   1   2
BRANCH   1  10
ATOM     10  C   UNL     1       7.636  49.843  10.278  1.00  0.00     0.000 C 
BRANCH  10  11
ATOM     11  C   UNL     1       6.610  49.532   9.173  1.00  0.00    -0.000 C 
BRANCH  11  12
ATOM     12  C   UNL     1       5.154  49.346   9.651  1.00  0.00    -0.000 C 
BRANCH  12  13
ATOM     13  C   UNL     1       4.810  47.936  10.170  1.00  0.00    -0.000 C 
BRANCH  13  14
ATOM     14  C   UNL     1       3.854  47.934  11.384  1.00  0.00    -0.000 C 
BRANCH  14  15
ATOM     15  C   UNL     1       4.542  47.547  12.704  1.00  0.00    -0.003 C 
ATOM     16  C   UNL     1       4.126  48.437  13.873  1.00  0.00     0.004 C 
ENDBRANCH  14  15
ENDBRANCH  13  14
ENDBRANCH  12  13
ENDBRANCH  11  12
ENDBRANCH  10  11
ENDBRANCH   1  10
TORSDOF 12
ENDMDL
MODEL 2
REMARK VINA RESULT:    10.054      3.382      5.123
REMARK INTER + INTRA:          16.402
REMARK INTER:                  16.517
REMARK INTRA:                  -0.115
REMARK UNBOUND:                -0.705
REMARK SMILES CCCCCCCCCCCCCC(=O)[O-]
REMARK SMILES IDX 8 1 9 2 10 3 11 4 12 5 13 6 14 7 15 8 16 9 7 10 6 11 5 12
REMARK SMILES IDX 4 13 3 14 2 15 1 16
REMARK H PARENT
REMARK Flexibility Score: inf
ROOT
ATOM      1  C   UNL     1       3.684  48.801  10.020  1.00  0.00     0.000 C 
ENDROOT
BRANCH   1   2
ATOM      2  C   UNL     1       4.895  48.737   9.081  1.00  0.00     0.000 C 
BRANCH   2   3
ATOM      3  C   UNL     1       5.693  50.046   9.120  1.00  0.00     0.000 C 
BRANCH   3   4
ATOM      4  C   UNL     1       7.071  49.832   9.762  1.00  0.00     0.000 C 
BRANCH   4   5
ATOM      5  C   UNL     1       8.017  49.009   8.875  1.00  0.00     0.006 C 
BRANCH   5   6
ATOM      6  C   UNL     1       8.173  47.562   9.362  1.00  0.00     0.053 C 
BRANCH   6   7
ATOM      7  C   UNL     1       7.846  47.465  10.819  1.00  0.00     0.041 C 
ATOM      8  O   UNL     1       6.730  47.013  11.190  1.00  0.00    -0.550 OA
ATOM      9  O   UNL     1       8.754  47.921  11.768  1.00  0.00    -0.550 OA
ENDBRANCH   6   7
ENDBRANCH   5   6
ENDBRANCH   4   5
ENDBRANCH   3   4
ENDBRANCH   2   3
ENDBRANCH   1   2
BRANCH   1  10
ATOM     10  C   UNL     1       3.850  47.832  11.199  1.00  0.00     0.000 C 
BRANCH  10  11
ATOM     11  C   UNL     1       4.287  48.533  12.497  1.00  0.00    -0.000 C 
BRANCH  11  12
ATOM     12  C   UNL     1       4.241  47.662  13.771  1.00  0.00    -0.000 C 
BRANCH  12  13
ATOM     13  C   UNL     1       3.142  48.040  14.783  1.00  0.00    -0.000 C 
BRANCH  13  14
ATOM     14  C   UNL     1       2.757  46.892  15.744  1.00  0.00    -0.000 C 
BRANCH  14  15
ATOM     15  C   UNL     1       3.578  45.610  15.525  1.00  0.00    -0.003 C 
ATOM     16  C   UNL     1       3.549  44.674  16.731  1.00  0.00     0.004 C 
ENDBRANCH  14  15
ENDBRANCH  13  14
ENDBRANCH  12  13
ENDBRANCH  11  12
ENDBRANCH  10  11
ENDBRANCH   1  10
TORSDOF 12
ENDMDL
MODEL 3
REMARK VINA RESULT:    10.388      1.511      1.968
REMARK INTER + INTRA:          16.970
REMARK INTER:                  17.595
REMARK INTRA:                  -0.625
REMARK UNBOUND:                -0.705
REMARK SMILES CCCCCCCCCCCCCC(=O)[O-]
REMARK SMILES IDX 8 1 9 2 10 3 11 4 12 5 13 6 14 7 15 8 16 9 7 10 6 11 5 12
REMARK SMILES IDX 4 13 3 14 2 15 1 16
REMARK H PARENT
REMARK Flexibility Score: inf
ROOT
ATOM      1  C   UNL     1       8.788  47.918  10.748  1.00  0.00     0.000 C 
ENDROOT
BRANCH   1   2
ATOM      2  C   UNL     1       8.786  47.563   9.257  1.00  0.00     0.000 C 
BRANCH   2   3
ATOM      3  C   UNL     1      10.037  46.763   8.878  1.00  0.00     0.000 C 
BRANCH   3   4
ATOM      4  C   UNL     1      11.315  47.528   9.251  1.00  0.00     0.000 C 
BRANCH   4   5
ATOM      5  C   UNL     1      12.594  46.765   8.875  1.00  0.00     0.006 C 
BRANCH   5   6
ATOM      6  C   UNL     1      13.171  45.964  10.051  1.00  0.00     0.053 C 
BRANCH   6   7
ATOM      7  C   UNL     1      13.976  44.807   9.548  1.00  0.00     0.041 C 
ATOM      8  O   UNL     1      15.232  44.881   9.504  1.00  0.00    -0.550 OA
ATOM      9  O   UNL     1      13.337  43.665   9.081  1.00  0.00    -0.550 OA
ENDBRANCH   6   7
ENDBRANCH   5   6
ENDBRANCH   4   5
ENDBRANCH   3   4
ENDBRANCH   2   3
ENDBRANCH   1   2
BRANCH   1  10
ATOM     10  C   UNL     1       7.895  49.136  11.025  1.00  0.00     0.000 C 
BRANCH  10  11
ATOM     11  C   UNL     1       7.548  49.930   9.753  1.00  0.00    -0.000 C 
BRANCH  11  12
ATOM     12  C   UNL     1       6.052  50.266   9.567  1.00  0.00    -0.000 C 
BRANCH  12  13
ATOM     13  C   UNL     1       5.168  49.088   9.116  1.00  0.00    -0.000 C 
BRANCH  13  14
ATOM     14  C   UNL     1       4.112  48.665  10.162  1.00  0.00    -0.000 C 
BRANCH  14  15
ATOM     15  C   UNL     1       4.688  47.810  11.304  1.00  0.00    -0.003 C 
ATOM     16  C   UNL     1       5.682  46.759  10.813  1.00  0.00     0.004 C 
ENDBRANCH  14  15
ENDBRANCH  13  14
ENDBRANCH  12  13
ENDBRANCH  11  12
ENDBRANCH  10  11
ENDBRANCH   1  10
TORSDOF 12
ENDMDL
MODEL 4
REMARK VINA RESULT:    10.634      3.738      6.259
REMARK INTER + INTRA:          17.389
REMARK INTER:                  18.056
REMARK INTRA:                  -0.668
REMARK UNBOUND:                -0.705
REMARK SMILES CCCCCCCCCCCCCC(=O)[O-]
REMARK SMILES IDX 8 1 9 2 10 3 11 4 12 5 13 6 14 7 15 8 16 9 7 10 6 11 5 12
REMARK SMILES IDX 4 13 3 14 2 15 1 16
REMARK H PARENT
REMARK Flexibility Score: inf
ROOT
ATOM      1  C   UNL     1       4.616  48.248  12.231  1.00  0.00     0.000 C 
ENDROOT
BRANCH   1   2
ATOM      2  C   UNL     1       4.279  47.992  10.758  1.00  0.00     0.000 C 
BRANCH   2   3
ATOM      3  C   UNL     1       4.194  49.307   9.974  1.00  0.00     0.000 C 
BRANCH   3   4
ATOM      4  C   UNL     1       5.265  49.364   8.875  1.00  0.00     0.000 C 
BRANCH   4   5
ATOM      5  C   UNL     1       6.641  49.790   9.410  1.00  0.00     0.006 C 
BRANCH   5   6
ATOM      6  C   UNL     1       7.762  48.832   8.983  1.00  0.00     0.053 C 
BRANCH   6   7
ATOM      7  C   UNL     1       7.696  47.566   9.776  1.00  0.00     0.041 C 
ATOM      8  O   UNL     1       7.268  46.506   9.245  1.00  0.00    -0.550 OA
ATOM      9  O   UNL     1       8.059  47.565  11.118  1.00  0.00    -0.550 OA
ENDBRANCH   6   7
ENDBRANCH   5   6
ENDBRANCH   4   5
ENDBRANCH   3   4
ENDBRANCH   2   3
ENDBRANCH   1   2
BRANCH   1  10
ATOM     10  C   UNL     1       3.800  47.328  13.151  1.00  0.00     0.000 C 
BRANCH  10  11
ATOM     11  C   UNL     1       3.654  47.881  14.579  1.00  0.00    -0.000 C 
BRANCH  11  12
ATOM     12  C   UNL     1       2.814  47.015  15.544  1.00  0.00    -0.000 C 
BRANCH  12  13
ATOM     13  C   UNL     1       3.528  45.762  16.088  1.00  0.00    -0.000 C 
BRANCH  13  14
ATOM     14  C   UNL     1       2.808  45.107  17.289  1.00  0.00    -0.000 C 
BRANCH  14  15
ATOM     15  C   UNL     1       2.599  46.066  18.474  1.00  0.00    -0.003 C 
ATOM     16  C   UNL     1       1.996  45.375  19.695  1.00  0.00     0.004 C 
ENDBRANCH  14  15
ENDBRANCH  13  14
ENDBRANCH  12  13
ENDBRANCH  11  12
ENDBRANCH  10  11
ENDBRANCH   1  10
TORSDOF 12
ENDMDL
MODEL 5
REMARK VINA RESULT:    11.195      4.282      5.646
REMARK INTER + INTRA:          18.344
REMARK INTER:                  16.441
REMARK INTRA:                   1.903
REMARK UNBOUND:                -0.705
REMARK SMILES CCCCCCCCCCCCCC(=O)[O-]
REMARK SMILES IDX 8 1 9 2 10 3 11 4 12 5 13 6 14 7 15 8 16 9 7 10 6 11 5 12
REMARK SMILES IDX 4 13 3 14 2 15 1 16
REMARK H PARENT
REMARK Flexibility Score: inf
ROOT
ATOM      1  C   UNL     1       8.303  47.998  11.348  1.00  0.00     0.000 C 
ENDROOT
BRANCH   1   2
ATOM      2  C   UNL     1       8.036  46.924  10.288  1.00  0.00     0.000 C 
BRANCH   2   3
ATOM      3  C   UNL     1       8.076  47.519   8.876  1.00  0.00     0.000 C 
BRANCH   3   4
ATOM      4  C   UNL     1       8.291  49.038   8.924  1.00  0.00     0.000 C 
BRANCH   4   5
ATOM      5  C   UNL     1       7.174  49.772   9.681  1.00  0.00     0.006 C 
BRANCH   5   6
ATOM      6  C   UNL     1       5.868  49.846   8.878  1.00  0.00     0.053 C 
BRANCH   6   7
ATOM      7  C   UNL     1       4.868  48.873   9.418  1.00  0.00     0.041 C 
ATOM      8  O   UNL     1       3.726  49.269   9.773  1.00  0.00    -0.550 OA
ATOM      9  O   UNL     1       5.213  47.536   9.579  1.00  0.00    -0.550 OA
ENDBRANCH   6   7
ENDBRANCH   5   6
ENDBRANCH   4   5
ENDBRANCH   3   4
ENDBRANCH   2   3
ENDBRANCH   1   2
BRANCH   1  10
ATOM     10  C   UNL     1       7.909  47.502  12.747  1.00  0.00     0.000 C 
BRANCH  10  11
ATOM     11  C   UNL     1       6.535  48.022  13.205  1.00  0.00    -0.000 C 
BRANCH  11  12
ATOM     12  C   UNL     1       5.375  47.799  12.211  1.00  0.00    -0.000 C 
BRANCH  12  13
ATOM     13  C   UNL     1       3.966  47.812  12.836  1.00  0.00    -0.000 C 
BRANCH  13  14
ATOM     14  C   UNL     1       3.968  47.949  14.375  1.00  0.00    -0.000 C 
BRANCH  14  15
ATOM     15  C   UNL     1       2.715  47.358  15.044  1.00  0.00    -0.003 C 
ATOM     16  C   UNL     1       3.049  46.405  16.189  1.00  0.00     0.004 C 
ENDBRANCH  14  15
ENDBRANCH  13  14
ENDBRANCH  12  13
ENDBRANCH  11  12
ENDBRANCH  10  11
ENDBRANCH   1  10
TORSDOF 12
ENDMDL
MODEL 6
REMARK VINA RESULT:    11.435      5.129      7.587
REMARK INTER + INTRA:          18.753
REMARK INTER:                  18.621
REMARK INTRA:                   0.132
REMARK UNBOUND:                -0.705
REMARK SMILES CCCCCCCCCCCCCC(=O)[O-]
REMARK SMILES IDX 8 1 9 2 10 3 11 4 12 5 13 6 14 7 15 8 16 9 7 10 6 11 5 12
REMARK SMILES IDX 4 13 3 14 2 15 1 16
REMARK H PARENT
REMARK Flexibility Score: inf
ROOT
ATOM      1  C   UNL     1       5.338  48.479   8.877  1.00  0.00     0.000 C 
ENDROOT
BRANCH   1   2
ATOM      2  C   UNL     1       3.912  48.307   9.414  1.00  0.00     0.000 C 
BRANCH   2   3
ATOM      3  C   UNL     1       3.817  48.748  10.880  1.00  0.00     0.000 C 
BRANCH   3   4
ATOM      4  C   UNL     1       3.845  47.537  11.823  1.00  0.00     0.000 C 
BRANCH   4   5
ATOM      5  C   UNL     1       3.943  47.938  13.302  1.00  0.00     0.006 C 
BRANCH   5   6
ATOM      6  C   UNL     1       3.206  46.962  14.229  1.00  0.00     0.053 C 
BRANCH   6   7
ATOM      7  C   UNL     1       3.140  47.512  15.619  1.00  0.00     0.041 C 
ATOM      8  O   UNL     1       2.693  46.804  16.560  1.00  0.00    -0.550 OA
ATOM      9  O   UNL     1       3.524  48.824  15.867  1.00  0.00    -0.550 OA
ENDBRANCH   6   7
ENDBRANCH   5   6
ENDBRANCH   4   5
ENDBRANCH   3   4
ENDBRANCH   2   3
ENDBRANCH   1   2
BRANCH   1  10
ATOM     10  C   UNL     1       5.841  49.913   9.102  1.00  0.00     0.000 C 
BRANCH  10  11
ATOM     11  C   UNL     1       7.252  49.966   9.715  1.00  0.00    -0.000 C 
BRANCH  11  12
ATOM     12  C   UNL     1       8.366  49.304   8.875  1.00  0.00    -0.000 C 
BRANCH  12  13
ATOM     13  C   UNL     1       8.360  47.763   8.878  1.00  0.00    -0.000 C 
BRANCH  13  14
ATOM     14  C   UNL     1       7.730  47.145  10.147  1.00  0.00    -0.000 C 
BRANCH  14  15
ATOM     15  C   UNL     1       8.344  47.674  11.455  1.00  0.00    -0.003 C 
ATOM     16  C   UNL     1       7.315  47.833  12.571  1.00  0.00     0.004 C 
ENDBRANCH  14  15
ENDBRANCH  13  14
ENDBRANCH  12  13
ENDBRANCH  11  12
ENDBRANCH  10  11
ENDBRANCH   1  10
TORSDOF 12
ENDMDL
