MODEL 1
REMARK VINA RESULT:    -6.945      0.000      0.000
REMARK INTER + INTRA:          -8.628
REMARK INTER:                  -8.365
REMARK INTRA:                  -0.262
REMARK UNBOUND:                -0.262
REMARK SMILES O=c1c(O)c(-c2ccc(O)c(O)c2)oc2cc(O)cc(O)c12
REMARK SMILES IDX 5 1 3 2 2 3 1 4 22 5 20 6 19 7 17 8 16 9 15 10 14 11 6 12
REMARK SMILES IDX 7 13 8 14 9 15 13 16 11 17 10 18 12 20 4 22 21 24 18 26
REMARK H PARENT 10 19 12 21 4 23 21 25 18 27
REMARK Flexibility Score: inf
ROOT
ATOM      1  C   UNL     1      18.998  25.078  40.991  1.00  0.00     0.180 A 
ATOM      2  C   UNL     1      20.018  26.037  41.147  1.00  0.00     0.208 A 
ATOM      3  C   UNL     1      20.053  26.806  42.320  1.00  0.00     0.238 A 
ATOM      4  O   UNL     1      20.968  27.661  42.475  1.00  0.00    -0.285 OA
ATOM      5  C   UNL     1      19.061  26.621  43.305  1.00  0.00     0.111 A 
ATOM      6  C   UNL     1      19.022  27.359  44.513  1.00  0.00     0.134 A 
ATOM      7  C   UNL     1      17.997  27.121  45.440  1.00  0.00     0.093 A 
ATOM      8  C   UNL     1      17.012  26.166  45.184  1.00  0.00     0.123 A 
ATOM      9  C   UNL     1      17.045  25.434  43.993  1.00  0.00     0.094 A 
ATOM     10  C   UNL     1      18.059  25.654  43.057  1.00  0.00     0.146 A 
ATOM     11  O   UNL     1      18.071  24.941  41.936  1.00  0.00    -0.452 OA
ENDROOT
BRANCH   1  12
ATOM     12  C   UNL     1      18.905  24.216  39.792  1.00  0.00     0.025 A 
ATOM     13  C   UNL     1      17.857  24.413  38.880  1.00  0.00     0.016 A 
ATOM     14  C   UNL     1      17.737  23.597  37.752  1.00  0.00     0.051 A 
ATOM     15  C   UNL     1      18.654  22.562  37.528  1.00  0.00     0.157 A 
ATOM     16  C   UNL     1      19.812  23.162  39.575  1.00  0.00     0.062 A 
ATOM     17  C   UNL     1      19.694  22.342  38.447  1.00  0.00     0.158 A 
BRANCH  15  18
ATOM     18  O   UNL     1      18.535  21.751  36.400  1.00  0.00    -0.504 OA
ATOM     19  H   UNL     1      17.778  21.084  36.304  1.00  0.00     0.293 HD
ENDBRANCH  15  18
BRANCH  17  20
ATOM     20  O   UNL     1      20.615  21.311  38.260  1.00  0.00    -0.504 OA
ATOM     21  H   UNL     1      20.542  20.658  37.490  1.00  0.00     0.293 HD
ENDBRANCH  17  20
ENDBRANCH   1  12
BRANCH   2  22
ATOM     22  O   UNL     1      20.960  26.236  40.133  1.00  0.00    -0.502 OA
ATOM     23  H   UNL     1      20.955  27.059  39.543  1.00  0.00     0.293 HD
ENDBRANCH   2  22
BRANCH   6  24
ATOM     24  O   UNL     1      19.992  28.321  44.798  1.00  0.00    -0.507 OA
ATOM     25  H   UNL     1      20.967  28.075  44.922  1.00  0.00     0.293 HD
ENDBRANCH   6  24
BRANCH   8  26
ATOM     26  O   UNL     1      16.004  25.950  46.120  1.00  0.00    -0.508 OA
ATOM     27  H   UNL     1      15.658  26.699  46.709  1.00  0.00     0.293 HD
ENDBRANCH   8  26
TORSDOF 6
ENDMDL
MODEL 2
REMARK VINA RESULT:    -6.881     12.058     13.707
REMARK INTER + INTRA:          -8.551
REMARK INTER:                  -8.654
REMARK INTRA:                   0.103
REMARK UNBOUND:                -0.262
REMARK SMILES O=c1c(O)c(-c2ccc(O)c(O)c2)oc2cc(O)cc(O)c12
REMARK SMILES IDX 5 1 3 2 2 3 1 4 22 5 20 6 19 7 17 8 16 9 15 10 14 11 6 12
REMARK SMILES IDX 7 13 8 14 9 15 13 16 11 17 10 18 12 20 4 22 21 24 18 26
REMARK H PARENT 10 19 12 21 4 23 21 25 18 27
REMARK Flexibility Score: inf
ROOT
ATOM      1  C   UNL     1      28.102  23.460  50.072  1.00  0.00     0.180 A 
ATOM      2  C   UNL     1      27.031  23.757  50.937  1.00  0.00     0.208 A 
ATOM      3  C   UNL     1      27.170  23.487  52.306  1.00  0.00     0.238 A 
ATOM      4  O   UNL     1      26.221  23.758  53.092  1.00  0.00    -0.285 OA
ATOM      5  C   UNL     1      28.363  22.907  52.785  1.00  0.00     0.111 A 
ATOM      6  C   UNL     1      28.581  22.598  54.149  1.00  0.00     0.134 A 
ATOM      7  C   UNL     1      29.793  22.014  54.545  1.00  0.00     0.093 A 
ATOM      8  C   UNL     1      30.788  21.731  53.607  1.00  0.00     0.123 A 
ATOM      9  C   UNL     1      30.579  22.034  52.258  1.00  0.00     0.094 A 
ATOM     10  C   UNL     1      29.379  22.618  51.843  1.00  0.00     0.146 A 
ATOM     11  O   UNL     1      29.207  22.900  50.556  1.00  0.00    -0.452 OA
ENDROOT
BRANCH   1  12
ATOM     12  C   UNL     1      28.039  23.735  48.619  1.00  0.00     0.025 A 
ATOM     13  C   UNL     1      29.127  24.359  47.987  1.00  0.00     0.016 A 
ATOM     14  C   UNL     1      29.081  24.648  46.620  1.00  0.00     0.051 A 
ATOM     15  C   UNL     1      27.941  24.331  45.869  1.00  0.00     0.157 A 
ATOM     16  C   UNL     1      26.889  23.437  47.865  1.00  0.00     0.062 A 
ATOM     17  C   UNL     1      26.839  23.726  46.497  1.00  0.00     0.158 A 
BRANCH  15  18
ATOM     18  O   UNL     1      27.899  24.616  44.505  1.00  0.00    -0.504 OA
ATOM     19  H   UNL     1      27.152  25.169  44.102  1.00  0.00     0.293 HD
ENDBRANCH  15  18
BRANCH  17  20
ATOM     20  O   UNL     1      25.685  23.410  45.779  1.00  0.00    -0.504 OA
ATOM     21  H   UNL     1      24.770  23.394  46.213  1.00  0.00     0.293 HD
ENDBRANCH  17  20
ENDBRANCH   1  12
BRANCH   2  22
ATOM     22  O   UNL     1      25.840  24.285  50.430  1.00  0.00    -0.502 OA
ATOM     23  H   UNL     1      25.272  23.790  49.753  1.00  0.00     0.293 HD
ENDBRANCH   2  22
BRANCH   6  24
ATOM     24  O   UNL     1      27.607  22.867  55.111  1.00  0.00    -0.507 OA
ATOM     25  H   UNL     1      27.628  23.713  55.669  1.00  0.00     0.293 HD
ENDBRANCH   6  24
BRANCH   8  26
ATOM     26  O   UNL     1      31.982  21.150  54.026  1.00  0.00    -0.508 OA
ATOM     27  H   UNL     1      32.212  20.189  53.801  1.00  0.00     0.293 HD
ENDBRANCH   8  26
TORSDOF 6
ENDMDL
MODEL 3
REMARK VINA RESULT:    -6.849      1.843      3.379
REMARK INTER + INTRA:          -8.513
REMARK INTER:                  -8.200
REMARK INTRA:                  -0.313
REMARK UNBOUND:                -0.262
REMARK SMILES O=c1c(O)c(-c2ccc(O)c(O)c2)oc2cc(O)cc(O)c12
REMARK SMILES IDX 5 1 3 2 2 3 1 4 22 5 20 6 19 7 17 8 16 9 15 10 14 11 6 12
REMARK SMILES IDX 7 13 8 14 9 15 13 16 11 17 10 18 12 20 4 22 21 24 18 26
REMARK H PARENT 10 19 12 21 4 23 21 25 18 27
REMARK Flexibility Score: inf
ROOT
ATOM      1  C   UNL     1      17.870  24.332  42.516  1.00  0.00     0.180 A 
ATOM      2  C   UNL     1      16.948  23.553  43.240  1.00  0.00     0.208 A 
ATOM      3  C   UNL     1      16.415  24.066  44.433  1.00  0.00     0.238 A 
ATOM      4  O   UNL     1      15.579  23.382  45.085  1.00  0.00    -0.285 OA
ATOM      5  C   UNL     1      16.826  25.335  44.891  1.00  0.00     0.111 A 
ATOM      6  C   UNL     1      16.341  25.922  46.085  1.00  0.00     0.134 A 
ATOM      7  C   UNL     1      16.806  27.185  46.478  1.00  0.00     0.093 A 
ATOM      8  C   UNL     1      17.746  27.871  45.705  1.00  0.00     0.123 A 
ATOM      9  C   UNL     1      18.228  27.296  44.524  1.00  0.00     0.094 A 
ATOM     10  C   UNL     1      17.776  26.039  44.114  1.00  0.00     0.146 A 
ATOM     11  O   UNL     1      18.246  25.518  42.987  1.00  0.00    -0.452 OA
ENDROOT
BRANCH   1  12
ATOM     12  C   UNL     1      18.461  23.869  41.240  1.00  0.00     0.025 A 
ATOM     13  C   UNL     1      17.857  24.235  40.027  1.00  0.00     0.016 A 
ATOM     14  C   UNL     1      18.385  23.791  38.812  1.00  0.00     0.051 A 
ATOM     15  C   UNL     1      19.514  22.963  38.792  1.00  0.00     0.157 A 
ATOM     16  C   UNL     1      19.583  23.020  41.217  1.00  0.00     0.062 A 
ATOM     17  C   UNL     1      20.113  22.572  40.002  1.00  0.00     0.158 A 
BRANCH  15  18
ATOM     18  O   UNL     1      20.041  22.524  37.578  1.00  0.00    -0.504 OA
ATOM     19  H   UNL     1      19.444  22.180  36.835  1.00  0.00     0.293 HD
ENDBRANCH  15  18
BRANCH  17  20
ATOM     20  O   UNL     1      21.230  21.738  40.017  1.00  0.00    -0.504 OA
ATOM     21  H   UNL     1      21.554  21.259  39.185  1.00  0.00     0.293 HD
ENDBRANCH  17  20
ENDBRANCH   1  12
BRANCH   2  22
ATOM     22  O   UNL     1      16.594  22.278  42.790  1.00  0.00    -0.502 OA
ATOM     23  H   UNL     1      15.630  22.002  42.644  1.00  0.00     0.293 HD
ENDBRANCH   2  22
BRANCH   6  24
ATOM     24  O   UNL     1      15.403  25.262  46.880  1.00  0.00    -0.507 OA
ATOM     25  H   UNL     1      14.462  25.619  47.002  1.00  0.00     0.293 HD
ENDBRANCH   6  24
BRANCH   8  26
ATOM     26  O   UNL     1      18.193  29.124  46.117  1.00  0.00    -0.508 OA
ATOM     27  H   UNL     1      18.903  29.630  45.602  1.00  0.00     0.293 HD
ENDBRANCH   8  26
TORSDOF 6
ENDMDL
MODEL 4
REMARK VINA RESULT:    -6.763     12.108     13.479
REMARK INTER + INTRA:          -8.409
REMARK INTER:                  -8.425
REMARK INTRA:                   0.016
REMARK UNBOUND:                -0.262
REMARK SMILES O=c1c(O)c(-c2ccc(O)c(O)c2)oc2cc(O)cc(O)c12
REMARK SMILES IDX 5 1 3 2 2 3 1 4 22 5 20 6 19 7 17 8 16 9 15 10 14 11 6 12
REMARK SMILES IDX 7 13 8 14 9 15 13 16 11 17 10 18 12 20 4 22 21 24 18 26
REMARK H PARENT 10 19 12 21 4 23 21 25 18 27
REMARK Flexibility Score: inf
ROOT
ATOM      1  C   UNL     1      28.841  23.170  49.524  1.00  0.00     0.180 A 
ATOM      2  C   UNL     1      30.039  22.490  49.818  1.00  0.00     0.208 A 
ATOM      3  C   UNL     1      30.293  22.104  51.143  1.00  0.00     0.238 A 
ATOM      4  O   UNL     1      31.358  21.486  51.416  1.00  0.00    -0.285 OA
ATOM      5  C   UNL     1      29.359  22.420  52.152  1.00  0.00     0.111 A 
ATOM      6  C   UNL     1      29.541  22.071  53.512  1.00  0.00     0.134 A 
ATOM      7  C   UNL     1      28.569  22.428  54.458  1.00  0.00     0.093 A 
ATOM      8  C   UNL     1      27.424  23.128  54.073  1.00  0.00     0.123 A 
ATOM      9  C   UNL     1      27.238  23.475  52.731  1.00  0.00     0.094 A 
ATOM     10  C   UNL     1      28.194  23.126  51.773  1.00  0.00     0.146 A 
ATOM     11  O   UNL     1      27.991  23.463  50.504  1.00  0.00    -0.452 OA
ENDROOT
BRANCH   1  12
ATOM     12  C   UNL     1      28.494  23.592  48.149  1.00  0.00     0.025 A 
ATOM     13  C   UNL     1      29.416  24.345  47.404  1.00  0.00     0.016 A 
ATOM     14  C   UNL     1      29.101  24.773  46.112  1.00  0.00     0.051 A 
ATOM     15  C   UNL     1      27.854  24.468  45.551  1.00  0.00     0.157 A 
ATOM     16  C   UNL     1      27.235  23.306  47.589  1.00  0.00     0.062 A 
ATOM     17  C   UNL     1      26.915  23.735  46.296  1.00  0.00     0.158 A 
BRANCH  15  18
ATOM     18  O   UNL     1      27.543  24.893  44.260  1.00  0.00    -0.504 OA
ATOM     19  H   UNL     1      28.156  25.514  43.744  1.00  0.00     0.293 HD
ENDBRANCH  15  18
BRANCH  17  20
ATOM     20  O   UNL     1      25.660  23.427  45.771  1.00  0.00    -0.504 OA
ATOM     21  H   UNL     1      24.802  23.712  46.228  1.00  0.00     0.293 HD
ENDBRANCH  17  20
ENDBRANCH   1  12
BRANCH   2  22
ATOM     22  O   UNL     1      30.971  22.234  48.808  1.00  0.00    -0.502 OA
ATOM     23  H   UNL     1      31.969  22.213  48.983  1.00  0.00     0.293 HD
ENDBRANCH   2  22
BRANCH   6  24
ATOM     24  O   UNL     1      30.676  21.373  53.929  1.00  0.00    -0.507 OA
ATOM     25  H   UNL     1      30.654  20.374  54.101  1.00  0.00     0.293 HD
ENDBRANCH   6  24
BRANCH   8  26
ATOM     26  O   UNL     1      26.475  23.472  55.032  1.00  0.00    -0.508 OA
ATOM     27  H   UNL     1      25.615  22.947  55.140  1.00  0.00     0.293 HD
ENDBRANCH   8  26
TORSDOF 6
ENDMDL
MODEL 5
REMARK VINA RESULT:    -6.565      3.496      6.359
REMARK INTER + INTRA:          -8.171
REMARK INTER:                  -7.851
REMARK INTRA:                  -0.320
REMARK UNBOUND:                -0.262
REMARK SMILES O=c1c(O)c(-c2ccc(O)c(O)c2)oc2cc(O)cc(O)c12
REMARK SMILES IDX 5 1 3 2 2 3 1 4 22 5 20 6 19 7 17 8 16 9 15 10 14 11 6 12
REMARK SMILES IDX 7 13 8 14 9 15 13 16 11 17 10 18 12 20 4 22 21 24 18 26
REMARK H PARENT 10 19 12 21 4 23 21 25 18 27
REMARK Flexibility Score: inf
ROOT
ATOM      1  C   UNL     1      17.220  24.424  42.750  1.00  0.00     0.180 A 
ATOM      2  C   UNL     1      15.891  24.698  42.373  1.00  0.00     0.208 A 
ATOM      3  C   UNL     1      14.922  23.695  42.527  1.00  0.00     0.238 A 
ATOM      4  O   UNL     1      13.726  23.932  42.203  1.00  0.00    -0.285 OA
ATOM      5  C   UNL     1      15.298  22.433  43.034  1.00  0.00     0.111 A 
ATOM      6  C   UNL     1      14.384  21.367  43.215  1.00  0.00     0.134 A 
ATOM      7  C   UNL     1      14.838  20.139  43.717  1.00  0.00     0.093 A 
ATOM      8  C   UNL     1      16.184  19.955  44.038  1.00  0.00     0.123 A 
ATOM      9  C   UNL     1      17.092  21.004  43.861  1.00  0.00     0.094 A 
ATOM     10  C   UNL     1      16.659  22.236  43.364  1.00  0.00     0.146 A 
ATOM     11  O   UNL     1      17.541  23.218  43.211  1.00  0.00    -0.452 OA
ENDROOT
BRANCH   1  12
ATOM     12  C   UNL     1      18.294  25.435  42.636  1.00  0.00     0.025 A 
ATOM     13  C   UNL     1      18.993  25.566  41.425  1.00  0.00     0.016 A 
ATOM     14  C   UNL     1      20.025  26.500  41.301  1.00  0.00     0.051 A 
ATOM     15  C   UNL     1      20.384  27.306  42.390  1.00  0.00     0.157 A 
ATOM     16  C   UNL     1      18.672  26.232  43.733  1.00  0.00     0.062 A 
ATOM     17  C   UNL     1      19.706  27.166  43.613  1.00  0.00     0.158 A 
BRANCH  15  18
ATOM     18  O   UNL     1      21.412  28.239  42.263  1.00  0.00    -0.504 OA
ATOM     19  H   UNL     1      22.161  28.115  41.592  1.00  0.00     0.293 HD
ENDBRANCH  15  18
BRANCH  17  20
ATOM     20  O   UNL     1      20.049  27.943  44.719  1.00  0.00    -0.504 OA
ATOM     21  H   UNL     1      20.889  27.771  45.258  1.00  0.00     0.293 HD
ENDBRANCH  17  20
ENDBRANCH   1  12
BRANCH   2  22
ATOM     22  O   UNL     1      15.554  25.939  41.827  1.00  0.00    -0.502 OA
ATOM     23  H   UNL     1      15.793  26.814  42.279  1.00  0.00     0.293 HD
ENDBRANCH   2  22
BRANCH   6  24
ATOM     24  O   UNL     1      13.032  21.520  42.903  1.00  0.00    -0.507 OA
ATOM     25  H   UNL     1      12.529  20.828  42.359  1.00  0.00     0.293 HD
ENDBRANCH   6  24
BRANCH   8  26
ATOM     26  O   UNL     1      16.610  18.725  44.533  1.00  0.00    -0.508 OA
ATOM     27  H   UNL     1      16.229  17.852  44.186  1.00  0.00     0.293 HD
ENDBRANCH   8  26
TORSDOF 6
ENDMDL
MODEL 6
REMARK VINA RESULT:    -6.559     10.905     12.530
REMARK INTER + INTRA:          -8.163
REMARK INTER:                  -8.341
REMARK INTRA:                   0.177
REMARK UNBOUND:                -0.262
REMARK SMILES O=c1c(O)c(-c2ccc(O)c(O)c2)oc2cc(O)cc(O)c12
REMARK SMILES IDX 5 1 3 2 2 3 1 4 22 5 20 6 19 7 17 8 16 9 15 10 14 11 6 12
REMARK SMILES IDX 7 13 8 14 9 15 13 16 11 17 10 18 12 20 4 22 21 24 18 26
REMARK H PARENT 10 19 12 21 4 23 21 25 18 27
REMARK Flexibility Score: inf
ROOT
ATOM      1  C   UNL     1      27.457  23.583  49.807  1.00  0.00     0.180 A 
ATOM      2  C   UNL     1      27.887  24.272  50.958  1.00  0.00     0.208 A 
ATOM      3  C   UNL     1      27.415  23.857  52.212  1.00  0.00     0.238 A 
ATOM      4  O   UNL     1      27.801  24.459  53.251  1.00  0.00    -0.285 OA
ATOM      5  C   UNL     1      26.509  22.779  52.295  1.00  0.00     0.111 A 
ATOM      6  C   UNL     1      25.982  22.303  53.520  1.00  0.00     0.134 A 
ATOM      7  C   UNL     1      25.079  21.230  53.518  1.00  0.00     0.093 A 
ATOM      8  C   UNL     1      24.691  20.628  52.320  1.00  0.00     0.123 A 
ATOM      9  C   UNL     1      25.208  21.094  51.107  1.00  0.00     0.094 A 
ATOM     10  C   UNL     1      26.111  22.160  51.087  1.00  0.00     0.146 A 
ATOM     11  O   UNL     1      26.591  22.580  49.922  1.00  0.00    -0.452 OA
ENDROOT
BRANCH   1  12
ATOM     12  C   UNL     1      27.926  23.947  48.451  1.00  0.00     0.025 A 
ATOM     13  C   UNL     1      29.264  24.327  48.263  1.00  0.00     0.016 A 
ATOM     14  C   UNL     1      29.723  24.696  46.995  1.00  0.00     0.051 A 
ATOM     15  C   UNL     1      28.848  24.706  45.901  1.00  0.00     0.157 A 
ATOM     16  C   UNL     1      27.045  23.978  47.354  1.00  0.00     0.062 A 
ATOM     17  C   UNL     1      27.501  24.350  46.084  1.00  0.00     0.158 A 
BRANCH  15  18
ATOM     18  O   UNL     1      29.309  25.071  44.637  1.00  0.00    -0.504 OA
ATOM     19  H   UNL     1      30.151  24.668  44.244  1.00  0.00     0.293 HD
ENDBRANCH  15  18
BRANCH  17  20
ATOM     20  O   UNL     1      26.601  24.362  45.019  1.00  0.00    -0.504 OA
ATOM     21  H   UNL     1      25.982  23.584  44.829  1.00  0.00     0.293 HD
ENDBRANCH  17  20
ENDBRANCH   1  12
BRANCH   2  22
ATOM     22  O   UNL     1      28.746  25.368  50.844  1.00  0.00    -0.502 OA
ATOM     23  H   UNL     1      29.648  25.401  51.305  1.00  0.00     0.293 HD
ENDBRANCH   2  22
BRANCH   6  24
ATOM     24  O   UNL     1      26.350  22.884  54.734  1.00  0.00    -0.507 OA
ATOM     25  H   UNL     1      26.472  23.885  54.831  1.00  0.00     0.293 HD
ENDBRANCH   6  24
BRANCH   8  26
ATOM     26  O   UNL     1      23.791  19.565  52.345  1.00  0.00    -0.508 OA
ATOM     27  H   UNL     1      23.670  18.992  53.172  1.00  0.00     0.293 HD
ENDBRANCH   8  26
TORSDOF 6
ENDMDL
MODEL 7
REMARK VINA RESULT:    -6.369      2.185      7.119
REMARK INTER + INTRA:          -7.934
REMARK INTER:                  -7.652
REMARK INTRA:                  -0.282
REMARK UNBOUND:                -0.262
REMARK SMILES O=c1c(O)c(-c2ccc(O)c(O)c2)oc2cc(O)cc(O)c12
REMARK SMILES IDX 5 1 3 2 2 3 1 4 22 5 20 6 19 7 17 8 16 9 15 10 14 11 6 12
REMARK SMILES IDX 7 13 8 14 9 15 13 16 11 17 10 18 12 20 4 22 21 24 18 26
REMARK H PARENT 10 19 12 21 4 23 21 25 18 27
REMARK Flexibility Score: inf
ROOT
ATOM      1  C   UNL     1      18.879  25.417  40.603  1.00  0.00     0.180 A 
ATOM      2  C   UNL     1      19.183  24.062  40.366  1.00  0.00     0.208 A 
ATOM      3  C   UNL     1      19.471  23.650  39.056  1.00  0.00     0.238 A 
ATOM      4  O   UNL     1      19.755  22.441  38.834  1.00  0.00    -0.285 OA
ATOM      5  C   UNL     1      19.432  24.590  38.005  1.00  0.00     0.111 A 
ATOM      6  C   UNL     1      19.705  24.256  36.657  1.00  0.00     0.134 A 
ATOM      7  C   UNL     1      19.637  25.247  35.667  1.00  0.00     0.093 A 
ATOM      8  C   UNL     1      19.300  26.561  35.997  1.00  0.00     0.123 A 
ATOM      9  C   UNL     1      19.029  26.897  37.327  1.00  0.00     0.094 A 
ATOM     10  C   UNL     1      19.094  25.925  38.329  1.00  0.00     0.146 A 
ATOM     11  O   UNL     1      18.837  26.272  39.585  1.00  0.00    -0.452 OA
ENDROOT
BRANCH   1  12
ATOM     12  C   UNL     1      18.583  25.931  41.959  1.00  0.00     0.025 A 
ATOM     13  C   UNL     1      17.310  25.723  42.513  1.00  0.00     0.016 A 
ATOM     14  C   UNL     1      17.002  26.218  43.783  1.00  0.00     0.051 A 
ATOM     15  C   UNL     1      17.956  26.941  44.511  1.00  0.00     0.157 A 
ATOM     16  C   UNL     1      19.532  26.675  42.685  1.00  0.00     0.062 A 
ATOM     17  C   UNL     1      19.225  27.174  43.956  1.00  0.00     0.158 A 
BRANCH  15  18
ATOM     18  O   UNL     1      17.647  27.431  45.779  1.00  0.00    -0.504 OA
ATOM     19  H   UNL     1      17.988  26.980  46.619  1.00  0.00     0.293 HD
ENDBRANCH  15  18
BRANCH  17  20
ATOM     20  O   UNL     1      20.193  27.902  44.649  1.00  0.00    -0.504 OA
ATOM     21  H   UNL     1      20.252  28.911  44.588  1.00  0.00     0.293 HD
ENDBRANCH  17  20
ENDBRANCH   1  12
BRANCH   2  22
ATOM     22  O   UNL     1      19.166  23.141  41.417  1.00  0.00    -0.502 OA
ATOM     23  H   UNL     1      18.685  22.251  41.352  1.00  0.00     0.293 HD
ENDBRANCH   2  22
BRANCH   6  24
ATOM     24  O   UNL     1      20.044  22.951  36.295  1.00  0.00    -0.507 OA
ATOM     25  H   UNL     1      19.760  22.554  35.406  1.00  0.00     0.293 HD
ENDBRANCH   6  24
BRANCH   8  26
ATOM     26  O   UNL     1      19.238  27.527  34.995  1.00  0.00    -0.508 OA
ATOM     27  H   UNL     1      18.762  27.351  34.118  1.00  0.00     0.293 HD
ENDBRANCH   8  26
TORSDOF 6
ENDMDL
MODEL 8
REMARK VINA RESULT:    -6.226      4.281      7.475
REMARK INTER + INTRA:          -7.762
REMARK INTER:                  -7.438
REMARK INTRA:                  -0.324
REMARK UNBOUND:                -0.262
REMARK SMILES O=c1c(O)c(-c2ccc(O)c(O)c2)oc2cc(O)cc(O)c12
REMARK SMILES IDX 5 1 3 2 2 3 1 4 22 5 20 6 19 7 17 8 16 9 15 10 14 11 6 12
REMARK SMILES IDX 7 13 8 14 9 15 13 16 11 17 10 18 12 20 4 22 21 24 18 26
REMARK H PARENT 10 19 12 21 4 23 21 25 18 27
REMARK Flexibility Score: inf
ROOT
ATOM      1  C   UNL     1      16.316  24.038  44.372  1.00  0.00     0.180 A 
ATOM      2  C   UNL     1      15.229  24.003  43.477  1.00  0.00     0.208 A 
ATOM      3  C   UNL     1      14.593  22.777  43.229  1.00  0.00     0.238 A 
ATOM      4  O   UNL     1      13.612  22.735  42.437  1.00  0.00    -0.285 OA
ATOM      5  C   UNL     1      15.064  21.607  43.860  1.00  0.00     0.111 A 
ATOM      6  C   UNL     1      14.484  20.331  43.660  1.00  0.00     0.134 A 
ATOM      7  C   UNL     1      15.016  19.214  44.318  1.00  0.00     0.093 A 
ATOM      8  C   UNL     1      16.116  19.345  45.168  1.00  0.00     0.123 A 
ATOM      9  C   UNL     1      16.694  20.602  45.370  1.00  0.00     0.094 A 
ATOM     10  C   UNL     1      16.177  21.728  44.725  1.00  0.00     0.146 A 
ATOM     11  O   UNL     1      16.742  22.912  44.938  1.00  0.00    -0.452 OA
ENDROOT
BRANCH   1  12
ATOM     12  C   UNL     1      17.024  25.295  44.700  1.00  0.00     0.025 A 
ATOM     13  C   UNL     1      16.573  26.082  45.772  1.00  0.00     0.016 A 
ATOM     14  C   UNL     1      17.214  27.283  46.087  1.00  0.00     0.051 A 
ATOM     15  C   UNL     1      18.304  27.724  45.325  1.00  0.00     0.157 A 
ATOM     16  C   UNL     1      18.107  25.751  43.926  1.00  0.00     0.062 A 
ATOM     17  C   UNL     1      18.749  26.955  44.236  1.00  0.00     0.158 A 
BRANCH  15  18
ATOM     18  O   UNL     1      18.944  28.921  45.643  1.00  0.00    -0.504 OA
ATOM     19  H   UNL     1      19.331  29.522  44.925  1.00  0.00     0.293 HD
ENDBRANCH  15  18
BRANCH  17  20
ATOM     20  O   UNL     1      19.823  27.372  43.451  1.00  0.00    -0.504 OA
ATOM     21  H   UNL     1      20.290  28.257  43.605  1.00  0.00     0.293 HD
ENDBRANCH  17  20
ENDBRANCH   1  12
BRANCH   2  22
ATOM     22  O   UNL     1      14.813  25.168  42.826  1.00  0.00    -0.502 OA
ATOM     23  H   UNL     1      14.346  25.150  41.927  1.00  0.00     0.293 HD
ENDBRANCH   2  22
BRANCH   6  24
ATOM     24  O   UNL     1      13.384  20.167  42.816  1.00  0.00    -0.507 OA
ATOM     25  H   UNL     1      13.369  19.457  42.092  1.00  0.00     0.293 HD
ENDBRANCH   6  24
BRANCH   8  26
ATOM     26  O   UNL     1      16.627  18.218  45.809  1.00  0.00    -0.508 OA
ATOM     27  H   UNL     1      16.157  17.802  46.605  1.00  0.00     0.293 HD
ENDBRANCH   8  26
TORSDOF 6
ENDMDL
MODEL 9
REMARK VINA RESULT:    -6.193      3.575      5.753
REMARK INTER + INTRA:          -7.723
REMARK INTER:                  -7.402
REMARK INTRA:                  -0.320
REMARK UNBOUND:                -0.262
REMARK SMILES O=c1c(O)c(-c2ccc(O)c(O)c2)oc2cc(O)cc(O)c12
REMARK SMILES IDX 5 1 3 2 2 3 1 4 22 5 20 6 19 7 17 8 16 9 15 10 14 11 6 12
REMARK SMILES IDX 7 13 8 14 9 15 13 16 11 17 10 18 12 20 4 22 21 24 18 26
REMARK H PARENT 10 19 12 21 4 23 21 25 18 27
REMARK Flexibility Score: inf
ROOT
ATOM      1  C   UNL     1      17.217  23.320  42.516  1.00  0.00     0.180 A 
ATOM      2  C   UNL     1      17.517  24.465  43.279  1.00  0.00     0.208 A 
ATOM      3  C   UNL     1      18.178  25.538  42.662  1.00  0.00     0.238 A 
ATOM      4  O   UNL     1      18.442  26.573  43.333  1.00  0.00    -0.285 OA
ATOM      5  C   UNL     1      18.545  25.442  41.304  1.00  0.00     0.111 A 
ATOM      6  C   UNL     1      19.218  26.476  40.609  1.00  0.00     0.134 A 
ATOM      7  C   UNL     1      19.556  26.301  39.259  1.00  0.00     0.093 A 
ATOM      8  C   UNL     1      19.240  25.115  38.593  1.00  0.00     0.123 A 
ATOM      9  C   UNL     1      18.576  24.090  39.275  1.00  0.00     0.094 A 
ATOM     10  C   UNL     1      18.227  24.246  40.619  1.00  0.00     0.146 A 
ATOM     11  O   UNL     1      17.592  23.259  41.241  1.00  0.00    -0.452 OA
ENDROOT
BRANCH   1  12
ATOM     12  C   UNL     1      16.505  22.156  43.090  1.00  0.00     0.025 A 
ATOM     13  C   UNL     1      15.102  22.160  43.136  1.00  0.00     0.016 A 
ATOM     14  C   UNL     1      14.410  21.081  43.693  1.00  0.00     0.051 A 
ATOM     15  C   UNL     1      15.110  19.991  44.226  1.00  0.00     0.157 A 
ATOM     16  C   UNL     1      17.205  21.069  43.645  1.00  0.00     0.062 A 
ATOM     17  C   UNL     1      16.515  19.988  44.206  1.00  0.00     0.158 A 
BRANCH  15  18
ATOM     18  O   UNL     1      14.417  18.915  44.778  1.00  0.00    -0.504 OA
ATOM     19  H   UNL     1      14.877  18.238  45.375  1.00  0.00     0.293 HD
ENDBRANCH  15  18
BRANCH  17  20
ATOM     20  O   UNL     1      17.241  18.925  44.741  1.00  0.00    -0.504 OA
ATOM     21  H   UNL     1      18.124  19.063  45.218  1.00  0.00     0.293 HD
ENDBRANCH  17  20
ENDBRANCH   1  12
BRANCH   2  22
ATOM     22  O   UNL     1      17.186  24.515  44.636  1.00  0.00    -0.502 OA
ATOM     23  H   UNL     1      17.868  24.736  45.353  1.00  0.00     0.293 HD
ENDBRANCH   2  22
BRANCH   6  24
ATOM     24  O   UNL     1      19.549  27.673  41.246  1.00  0.00    -0.507 OA
ATOM     25  H   UNL     1      19.892  28.475  40.729  1.00  0.00     0.293 HD
ENDBRANCH   6  24
BRANCH   8  26
ATOM     26  O   UNL     1      19.589  24.965  37.253  1.00  0.00    -0.508 OA
ATOM     27  H   UNL     1      18.956  24.543  36.584  1.00  0.00     0.293 HD
ENDBRANCH   8  26
TORSDOF 6
ENDMDL
