MODEL 1
REMARK VINA RESULT:    -8.096      0.000      0.000
REMARK INTER + INTRA:         -11.671
REMARK INTER:                 -10.698
REMARK INTRA:                  -0.973
REMARK UNBOUND:                -0.973
REMARK SMILES CC[C@@H](C=C[C@H](C)[C@@H]1CC[C@@H]2[C@@H]3CC=C4C[C@H](O)CC[C@@]4(C)[C@@H]3CC[C@]21C)C(C)C
REMARK SMILES IDX 6 1 7 2 5 3 4 4 3 5 2 6 1 7 28 8 29 9 30 10 8 11 9 12 26 13
REMARK SMILES IDX 10 14 11 15 25 16 27 17 12 18 24 19 23 20 13 21 21 22 14 23
REMARK SMILES IDX 15 24 20 25 22 26 16 27 19 28 17 29 18 30
REMARK H PARENT 18 31
REMARK Flexibility Score: inf
ROOT
ATOM      1  C   UNL     1     118.606 129.189 129.743  1.00  0.00     0.012 C 
ATOM      2  C   UNL     1     118.655 129.515 131.243  1.00  0.00     0.012 C 
ENDROOT
BRANCH   1   3
ATOM      3  C   UNL     1     119.579 130.044 128.954  1.00  0.00    -0.028 C 
ATOM      4  C   UNL     1     119.448 131.369 128.790  1.00  0.00    -0.027 C 
BRANCH   4   5
ATOM      5  C   UNL     1     120.488 132.194 128.056  1.00  0.00     0.014 C 
BRANCH   5   6
ATOM      6  C   UNL     1     121.806 132.249 128.884  1.00  0.00     0.004 C 
ATOM      7  C   UNL     1     123.046 132.203 127.998  1.00  0.00     0.004 C 
ENDBRANCH   5   6
BRANCH   5   8
ATOM      8  C   UNL     1     119.980 133.635 127.689  1.00  0.00    -0.011 C 
ATOM      9  C   UNL     1     118.449 133.699 127.535  1.00  0.00     0.008 C 
ATOM     10  C   UNL     1     120.460 134.732 128.659  1.00  0.00     0.008 C 
ENDBRANCH   5   8
ENDBRANCH   4   5
ENDBRANCH   1   3
BRANCH   1  11
ATOM     11  C   UNL     1     118.859 127.680 129.435  1.00  0.00     0.002 C 
ATOM     12  C   UNL     1     119.574 127.483 128.066  1.00  0.00     0.005 C 
ATOM     13  C   UNL     1     117.649 126.686 129.360  1.00  0.00    -0.026 C 
ATOM     14  C   UNL     1     119.179 126.095 127.542  1.00  0.00     0.005 C 
ATOM     15  C   UNL     1     118.370 125.500 128.682  1.00  0.00    -0.001 C 
ATOM     16  C   UNL     1     117.104 126.171 130.717  1.00  0.00     0.007 C 
ATOM     17  C   UNL     1     116.488 127.304 128.512  1.00  0.00     0.012 C 
ATOM     18  C   UNL     1     117.551 124.211 128.447  1.00  0.00     0.000 C 
ATOM     19  C   UNL     1     116.234 124.889 130.551  1.00  0.00     0.005 C 
ATOM     20  C   UNL     1     116.974 123.732 129.807  1.00  0.00     0.003 C 
ATOM     21  C   UNL     1     116.452 124.293 127.384  1.00  0.00     0.031 C 
ATOM     22  C   UNL     1     116.182 122.349 129.651  1.00  0.00    -0.008 C 
ATOM     23  C   UNL     1     115.842 122.943 127.194  1.00  0.00    -0.027 C 
ATOM     24  C   UNL     1     115.709 122.064 128.210  1.00  0.00    -0.065 C 
ATOM     25  C   UNL     1     117.177 121.208 130.045  1.00  0.00     0.014 C 
ATOM     26  C   UNL     1     114.957 122.292 130.596  1.00  0.00     0.016 C 
ATOM     27  C   UNL     1     115.203 120.669 127.889  1.00  0.00     0.063 C 
ATOM     28  C   UNL     1     116.664 119.787 129.763  1.00  0.00     0.033 C 
ATOM     29  C   UNL     1     116.267 119.629 128.292  1.00  0.00     0.118 C 
BRANCH  29  30
ATOM     30  O   UNL     1     115.830 118.315 128.052  1.00  0.00    -0.393 OA
ATOM     31  H   UNL     1     114.841 118.315 128.048  1.00  0.00     0.210 HD
ENDBRANCH  29  30
ENDBRANCH   1  11
TORSDOF 6
ENDMDL
MODEL 2
REMARK VINA RESULT:    -7.521      3.179      9.552
REMARK INTER + INTRA:         -10.912
REMARK INTER:                  -9.750
REMARK INTRA:                  -1.162
REMARK UNBOUND:                -0.973
REMARK SMILES CC[C@@H](C=C[C@H](C)[C@@H]1CC[C@@H]2[C@@H]3CC=C4C[C@H](O)CC[C@@]4(C)[C@@H]3CC[C@]21C)C(C)C
REMARK SMILES IDX 6 1 7 2 5 3 4 4 3 5 2 6 1 7 28 8 29 9 30 10 8 11 9 12 26 13
REMARK SMILES IDX 10 14 11 15 25 16 27 17 12 18 24 19 23 20 13 21 21 22 14 23
REMARK SMILES IDX 15 24 20 25 22 26 16 27 19 28 17 29 18 30
REMARK H PARENT 18 31
REMARK Flexibility Score: inf
ROOT
ATOM      1  C   UNL     1     115.658 123.418 130.095  1.00  0.00     0.012 C 
ATOM      2  C   UNL     1     114.399 123.517 130.969  1.00  0.00     0.012 C 
ENDROOT
BRANCH   1   3
ATOM      3  C   UNL     1     115.573 122.257 129.123  1.00  0.00    -0.028 C 
ATOM      4  C   UNL     1     114.424 121.664 128.764  1.00  0.00    -0.027 C 
BRANCH   4   5
ATOM      5  C   UNL     1     114.382 120.555 127.730  1.00  0.00     0.014 C 
BRANCH   5   6
ATOM      6  C   UNL     1     115.742 119.796 127.707  1.00  0.00     0.004 C 
ATOM      7  C   UNL     1     115.668 118.459 128.438  1.00  0.00     0.004 C 
ENDBRANCH   5   6
BRANCH   5   8
ATOM      8  C   UNL     1     113.988 121.068 126.298  1.00  0.00    -0.011 C 
ATOM      9  C   UNL     1     113.146 120.043 125.516  1.00  0.00     0.008 C 
ATOM     10  C   UNL     1     113.287 122.440 126.296  1.00  0.00     0.008 C 
ENDBRANCH   5   8
ENDBRANCH   4   5
ENDBRANCH   1   3
BRANCH   1  11
ATOM     11  C   UNL     1     115.969 124.735 129.319  1.00  0.00     0.002 C 
ATOM     12  C   UNL     1     116.182 124.472 127.799  1.00  0.00     0.005 C 
ATOM     13  C   UNL     1     117.215 125.599 129.716  1.00  0.00    -0.026 C 
ATOM     14  C   UNL     1     117.105 125.579 127.271  1.00  0.00     0.005 C 
ATOM     15  C   UNL     1     117.275 126.502 128.465  1.00  0.00    -0.001 C 
ATOM     16  C   UNL     1     117.036 126.532 130.942  1.00  0.00     0.007 C 
ATOM     17  C   UNL     1     118.471 124.685 129.913  1.00  0.00     0.012 C 
ATOM     18  C   UNL     1     118.362 127.601 128.434  1.00  0.00     0.000 C 
ATOM     19  C   UNL     1     118.124 127.646 130.996  1.00  0.00     0.005 C 
ATOM     20  C   UNL     1     118.198 128.500 129.690  1.00  0.00     0.003 C 
ATOM     21  C   UNL     1     119.808 127.118 128.290  1.00  0.00     0.031 C 
ATOM     22  C   UNL     1     119.241 129.715 129.678  1.00  0.00    -0.008 C 
ATOM     23  C   UNL     1     120.715 128.297 128.154  1.00  0.00    -0.027 C 
ATOM     24  C   UNL     1     120.472 129.468 128.780  1.00  0.00    -0.065 C 
ATOM     25  C   UNL     1     118.488 130.956 129.096  1.00  0.00     0.014 C 
ATOM     26  C   UNL     1     119.729 130.052 131.109  1.00  0.00     0.016 C 
ATOM     27  C   UNL     1     121.376 130.647 128.471  1.00  0.00     0.063 C 
ATOM     28  C   UNL     1     119.382 132.173 128.815  1.00  0.00     0.033 C 
ATOM     29  C   UNL     1     120.539 131.799 127.882  1.00  0.00     0.118 C 
BRANCH  29  30
ATOM     30  O   UNL     1     121.325 132.933 127.615  1.00  0.00    -0.393 OA
ATOM     31  H   UNL     1     121.736 133.229 128.464  1.00  0.00     0.210 HD
ENDBRANCH  29  30
ENDBRANCH   1  11
TORSDOF 6
ENDMDL
MODEL 3
REMARK VINA RESULT:    -7.345      1.261      3.072
REMARK INTER + INTRA:         -10.679
REMARK INTER:                 -10.187
REMARK INTRA:                  -0.491
REMARK UNBOUND:                -0.973
REMARK SMILES CC[C@@H](C=C[C@H](C)[C@@H]1CC[C@@H]2[C@@H]3CC=C4C[C@H](O)CC[C@@]4(C)[C@@H]3CC[C@]21C)C(C)C
REMARK SMILES IDX 6 1 7 2 5 3 4 4 3 5 2 6 1 7 28 8 29 9 30 10 8 11 9 12 26 13
REMARK SMILES IDX 10 14 11 15 25 16 27 17 12 18 24 19 23 20 13 21 21 22 14 23
REMARK SMILES IDX 15 24 20 25 22 26 16 27 19 28 17 29 18 30
REMARK H PARENT 18 31
REMARK Flexibility Score: inf
ROOT
ATOM      1  C   UNL     1     120.011 129.866 129.338  1.00  0.00     0.012 C 
ATOM      2  C   UNL     1     121.118 129.423 128.369  1.00  0.00     0.012 C 
ENDROOT
BRANCH   1   3
ATOM      3  C   UNL     1     119.654 131.327 129.146  1.00  0.00    -0.028 C 
ATOM      4  C   UNL     1     120.438 132.213 128.513  1.00  0.00    -0.027 C 
BRANCH   4   5
ATOM      5  C   UNL     1     120.003 133.647 128.280  1.00  0.00     0.014 C 
BRANCH   5   6
ATOM      6  C   UNL     1     119.256 133.762 126.918  1.00  0.00     0.004 C 
ATOM      7  C   UNL     1     117.991 134.607 127.025  1.00  0.00     0.004 C 
ENDBRANCH   5   6
BRANCH   5   8
ATOM      8  C   UNL     1     121.192 134.670 128.370  1.00  0.00    -0.011 C 
ATOM      9  C   UNL     1     121.763 134.787 129.795  1.00  0.00     0.008 C 
ATOM     10  C   UNL     1     122.328 134.398 127.365  1.00  0.00     0.008 C 
ENDBRANCH   5   8
ENDBRANCH   4   5
ENDBRANCH   1   3
BRANCH   1  11
ATOM     11  C   UNL     1     118.724 128.989 129.240  1.00  0.00     0.002 C 
ATOM     12  C   UNL     1     117.784 129.210 130.461  1.00  0.00     0.005 C 
ATOM     13  C   UNL     1     118.847 127.429 129.152  1.00  0.00    -0.026 C 
ATOM     14  C   UNL     1     116.973 127.919 130.648  1.00  0.00     0.005 C 
ATOM     15  C   UNL     1     117.378 127.067 129.458  1.00  0.00    -0.001 C 
ATOM     16  C   UNL     1     119.177 126.849 127.752  1.00  0.00     0.007 C 
ATOM     17  C   UNL     1     119.875 126.903 130.208  1.00  0.00     0.012 C 
ATOM     18  C   UNL     1     116.993 125.571 129.422  1.00  0.00     0.000 C 
ATOM     19  C   UNL     1     118.847 125.329 127.654  1.00  0.00     0.005 C 
ATOM     20  C   UNL     1     117.369 124.992 128.031  1.00  0.00     0.003 C 
ATOM     21  C   UNL     1     117.557 124.700 130.548  1.00  0.00     0.031 C 
ATOM     22  C   UNL     1     116.919 123.462 127.893  1.00  0.00    -0.008 C 
ATOM     23  C   UNL     1     116.997 123.320 130.439  1.00  0.00    -0.027 C 
ATOM     24  C   UNL     1     116.713 122.751 129.247  1.00  0.00    -0.065 C 
ATOM     25  C   UNL     1     115.539 123.457 127.156  1.00  0.00     0.014 C 
ATOM     26  C   UNL     1     117.935 122.648 127.054  1.00  0.00     0.016 C 
ATOM     27  C   UNL     1     116.021 121.400 129.246  1.00  0.00     0.063 C 
ATOM     28  C   UNL     1     114.843 122.089 127.111  1.00  0.00     0.033 C 
ATOM     29  C   UNL     1     114.666 121.516 128.520  1.00  0.00     0.118 C 
BRANCH  29  30
ATOM     30  O   UNL     1     114.001 120.280 128.455  1.00  0.00    -0.393 OA
ATOM     31  H   UNL     1     113.065 120.418 128.742  1.00  0.00     0.210 HD
ENDBRANCH  29  30
ENDBRANCH   1  11
TORSDOF 6
ENDMDL
MODEL 4
REMARK VINA RESULT:    -7.291      3.473     10.074
REMARK INTER + INTRA:         -10.608
REMARK INTER:                 -10.160
REMARK INTRA:                  -0.448
REMARK UNBOUND:                -0.973
REMARK SMILES CC[C@@H](C=C[C@H](C)[C@@H]1CC[C@@H]2[C@@H]3CC=C4C[C@H](O)CC[C@@]4(C)[C@@H]3CC[C@]21C)C(C)C
REMARK SMILES IDX 6 1 7 2 5 3 4 4 3 5 2 6 1 7 28 8 29 9 30 10 8 11 9 12 26 13
REMARK SMILES IDX 10 14 11 15 25 16 27 17 12 18 24 19 23 20 13 21 21 22 14 23
REMARK SMILES IDX 15 24 20 25 22 26 16 27 19 28 17 29 18 30
REMARK H PARENT 18 31
REMARK Flexibility Score: inf
ROOT
ATOM      1  C   UNL     1     114.992 119.535 128.892  1.00  0.00     0.012 C 
ATOM      2  C   UNL     1     113.991 120.095 127.871  1.00  0.00     0.012 C 
ENDROOT
BRANCH   1   3
ATOM      3  C   UNL     1     115.640 118.258 128.396  1.00  0.00    -0.028 C 
ATOM      4  C   UNL     1     116.927 118.166 128.026  1.00  0.00    -0.027 C 
BRANCH   4   5
ATOM      5  C   UNL     1     117.550 116.847 127.609  1.00  0.00     0.014 C 
BRANCH   5   6
ATOM      6  C   UNL     1     118.904 116.639 128.349  1.00  0.00     0.004 C 
ATOM      7  C   UNL     1     119.259 117.822 129.245  1.00  0.00     0.004 C 
ENDBRANCH   5   6
BRANCH   5   8
ATOM      8  C   UNL     1     117.721 116.716 126.052  1.00  0.00    -0.011 C 
ATOM      9  C   UNL     1     118.881 117.574 125.513  1.00  0.00     0.008 C 
ATOM     10  C   UNL     1     117.864 115.263 125.560  1.00  0.00     0.008 C 
ENDBRANCH   5   8
ENDBRANCH   4   5
ENDBRANCH   1   3
BRANCH   1  11
ATOM     11  C   UNL     1     116.093 120.563 129.298  1.00  0.00     0.002 C 
ATOM     12  C   UNL     1     116.416 120.491 130.819  1.00  0.00     0.005 C 
ATOM     13  C   UNL     1     115.863 122.093 129.047  1.00  0.00    -0.026 C 
ATOM     14  C   UNL     1     116.923 121.877 131.242  1.00  0.00     0.005 C 
ATOM     15  C   UNL     1     117.001 122.644 129.934  1.00  0.00    -0.001 C 
ATOM     16  C   UNL     1     116.127 122.596 127.604  1.00  0.00     0.007 C 
ATOM     17  C   UNL     1     114.426 122.511 129.508  1.00  0.00     0.012 C 
ATOM     18  C   UNL     1     117.207 124.175 129.956  1.00  0.00     0.000 C 
ATOM     19  C   UNL     1     116.308 124.142 127.545  1.00  0.00     0.005 C 
ATOM     20  C   UNL     1     117.425 124.670 128.500  1.00  0.00     0.003 C 
ATOM     21  C   UNL     1     116.117 124.994 130.655  1.00  0.00     0.031 C 
ATOM     22  C   UNL     1     117.731 126.241 128.457  1.00  0.00    -0.008 C 
ATOM     23  C   UNL     1     116.524 126.430 130.696  1.00  0.00    -0.027 C 
ATOM     24  C   UNL     1     117.245 127.003 129.708  1.00  0.00    -0.065 C 
ATOM     25  C   UNL     1     119.286 126.401 128.396  1.00  0.00     0.014 C 
ATOM     26  C   UNL     1     117.112 126.902 127.201  1.00  0.00     0.016 C 
ATOM     27  C   UNL     1     117.724 128.429 129.905  1.00  0.00     0.063 C 
ATOM     28  C   UNL     1     119.787 127.845 128.554  1.00  0.00     0.033 C 
ATOM     29  C   UNL     1     119.264 128.468 129.853  1.00  0.00     0.118 C 
BRANCH  29  30
ATOM     30  O   UNL     1     119.759 129.776 129.990  1.00  0.00    -0.393 OA
ATOM     31  H   UNL     1     120.436 129.925 129.284  1.00  0.00     0.210 HD
ENDBRANCH  29  30
ENDBRANCH   1  11
TORSDOF 6
ENDMDL
MODEL 5
REMARK VINA RESULT:    -7.112      3.371      9.240
REMARK INTER + INTRA:         -10.371
REMARK INTER:                 -10.012
REMARK INTRA:                  -0.359
REMARK UNBOUND:                -0.973
REMARK SMILES CC[C@@H](C=C[C@H](C)[C@@H]1CC[C@@H]2[C@@H]3CC=C4C[C@H](O)CC[C@@]4(C)[C@@H]3CC[C@]21C)C(C)C
REMARK SMILES IDX 6 1 7 2 5 3 4 4 3 5 2 6 1 7 28 8 29 9 30 10 8 11 9 12 26 13
REMARK SMILES IDX 10 14 11 15 25 16 27 17 12 18 24 19 23 20 13 21 21 22 14 23
REMARK SMILES IDX 15 24 20 25 22 26 16 27 19 28 17 29 18 30
REMARK H PARENT 18 31
REMARK Flexibility Score: inf
ROOT
ATOM      1  C   UNL     1     114.298 120.700 129.469  1.00  0.00     0.012 C 
ATOM      2  C   UNL     1     114.503 119.908 128.170  1.00  0.00     0.012 C 
ENDROOT
BRANCH   1   3
ATOM      3  C   UNL     1     115.133 120.139 130.603  1.00  0.00    -0.028 C 
ATOM      4  C   UNL     1     115.229 120.708 131.815  1.00  0.00    -0.027 C 
BRANCH   4   5
ATOM      5  C   UNL     1     116.017 120.068 132.942  1.00  0.00     0.014 C 
BRANCH   5   6
ATOM      6  C   UNL     1     115.208 120.148 134.270  1.00  0.00     0.004 C 
ATOM      7  C   UNL     1     114.070 121.160 134.192  1.00  0.00     0.004 C 
ENDBRANCH   5   6
BRANCH   5   8
ATOM      8  C   UNL     1     117.455 120.680 133.109  1.00  0.00    -0.011 C 
ATOM      9  C   UNL     1     117.931 120.672 134.573  1.00  0.00     0.008 C 
ATOM     10  C   UNL     1     118.519 120.031 132.203  1.00  0.00     0.008 C 
ENDBRANCH   5   8
ENDBRANCH   4   5
ENDBRANCH   1   3
BRANCH   1  11
ATOM     11  C   UNL     1     114.582 122.225 129.308  1.00  0.00     0.002 C 
ATOM     12  C   UNL     1     113.794 122.835 128.112  1.00  0.00     0.005 C 
ATOM     13  C   UNL     1     116.048 122.726 129.071  1.00  0.00    -0.026 C 
ATOM     14  C   UNL     1     114.594 124.046 127.611  1.00  0.00     0.005 C 
ATOM     15  C   UNL     1     115.727 124.165 128.614  1.00  0.00    -0.001 C 
ATOM     16  C   UNL     1     116.944 122.837 130.332  1.00  0.00     0.007 C 
ATOM     17  C   UNL     1     116.754 121.847 127.985  1.00  0.00     0.012 C 
ATOM     18  C   UNL     1     116.923 125.097 128.312  1.00  0.00     0.000 C 
ATOM     19  C   UNL     1     118.192 123.736 130.088  1.00  0.00     0.005 C 
ATOM     20  C   UNL     1     117.834 125.164 129.567  1.00  0.00     0.003 C 
ATOM     21  C   UNL     1     117.739 124.765 127.060  1.00  0.00     0.031 C 
ATOM     22  C   UNL     1     119.050 126.183 129.353  1.00  0.00    -0.008 C 
ATOM     23  C   UNL     1     118.771 125.822 126.843  1.00  0.00    -0.027 C 
ATOM     24  C   UNL     1     119.373 126.461 127.870  1.00  0.00    -0.065 C 
ATOM     25  C   UNL     1     118.623 127.544 129.995  1.00  0.00     0.014 C 
ATOM     26  C   UNL     1     120.336 125.681 130.055  1.00  0.00     0.016 C 
ATOM     27  C   UNL     1     120.307 127.613 127.547  1.00  0.00     0.063 C 
ATOM     28  C   UNL     1     119.579 128.712 129.712  1.00  0.00     0.033 C 
ATOM     29  C   UNL     1     119.781 128.904 128.205  1.00  0.00     0.118 C 
BRANCH  29  30
ATOM     30  O   UNL     1     120.634 129.995 127.971  1.00  0.00    -0.393 OA
ATOM     31  H   UNL     1     120.993 129.914 127.052  1.00  0.00     0.210 HD
ENDBRANCH  29  30
ENDBRANCH   1  11
TORSDOF 6
ENDMDL
MODEL 6
REMARK VINA RESULT:    -6.916      7.963     10.765
REMARK INTER + INTRA:         -10.112
REMARK INTER:                  -9.146
REMARK INTRA:                  -0.966
REMARK UNBOUND:                -0.973
REMARK SMILES CC[C@@H](C=C[C@H](C)[C@@H]1CC[C@@H]2[C@@H]3CC=C4C[C@H](O)CC[C@@]4(C)[C@@H]3CC[C@]21C)C(C)C
REMARK SMILES IDX 6 1 7 2 5 3 4 4 3 5 2 6 1 7 28 8 29 9 30 10 8 11 9 12 26 13
REMARK SMILES IDX 10 14 11 15 25 16 27 17 12 18 24 19 23 20 13 21 21 22 14 23
REMARK SMILES IDX 15 24 20 25 22 26 16 27 19 28 17 29 18 30
REMARK H PARENT 18 31
REMARK Flexibility Score: inf
ROOT
ATOM      1  C   UNL     1     124.792 119.207 123.590  1.00  0.00     0.012 C 
ATOM      2  C   UNL     1     125.525 117.858 123.632  1.00  0.00     0.012 C 
ENDROOT
BRANCH   1   3
ATOM      3  C   UNL     1     125.144 119.995 122.344  1.00  0.00    -0.028 C 
ATOM      4  C   UNL     1     126.321 119.899 121.705  1.00  0.00    -0.027 C 
BRANCH   4   5
ATOM      5  C   UNL     1     126.599 120.651 120.418  1.00  0.00     0.014 C 
BRANCH   5   6
ATOM      6  C   UNL     1     126.219 119.769 119.192  1.00  0.00     0.004 C 
ATOM      7  C   UNL     1     125.227 120.465 118.266  1.00  0.00     0.004 C 
ENDBRANCH   5   6
BRANCH   5   8
ATOM      8  C   UNL     1     128.080 121.166 120.317  1.00  0.00    -0.011 C 
ATOM      9  C   UNL     1     129.067 120.049 119.928  1.00  0.00     0.008 C 
ATOM     10  C   UNL     1     128.258 122.378 119.382  1.00  0.00     0.008 C 
ENDBRANCH   5   8
ENDBRANCH   4   5
ENDBRANCH   1   3
BRANCH   1  11
ATOM     11  C   UNL     1     123.243 119.066 123.707  1.00  0.00     0.002 C 
ATOM     12  C   UNL     1     122.502 120.133 122.847  1.00  0.00     0.005 C 
ATOM     13  C   UNL     1     122.551 119.184 125.108  1.00  0.00    -0.026 C 
ATOM     14  C   UNL     1     121.137 120.380 123.508  1.00  0.00     0.005 C 
ATOM     15  C   UNL     1     121.093 119.358 124.630  1.00  0.00    -0.001 C 
ATOM     16  C   UNL     1     122.590 117.914 125.997  1.00  0.00     0.007 C 
ATOM     17  C   UNL     1     123.122 120.411 125.896  1.00  0.00     0.012 C 
ATOM     18  C   UNL     1     119.997 119.460 125.715  1.00  0.00     0.000 C 
ATOM     19  C   UNL     1     121.532 117.965 127.140  1.00  0.00     0.005 C 
ATOM     20  C   UNL     1     120.077 118.204 126.624  1.00  0.00     0.003 C 
ATOM     21  C   UNL     1     119.992 120.743 126.551  1.00  0.00     0.031 C 
ATOM     22  C   UNL     1     118.911 118.203 127.722  1.00  0.00    -0.008 C 
ATOM     23  C   UNL     1     118.808 120.738 127.462  1.00  0.00    -0.027 C 
ATOM     24  C   UNL     1     118.318 119.600 127.999  1.00  0.00    -0.065 C 
ATOM     25  C   UNL     1     117.754 117.315 127.156  1.00  0.00     0.014 C 
ATOM     26  C   UNL     1     119.398 117.595 129.060  1.00  0.00     0.016 C 
ATOM     27  C   UNL     1     117.032 119.683 128.801  1.00  0.00     0.063 C 
ATOM     28  C   UNL     1     116.457 117.356 127.978  1.00  0.00     0.033 C 
ATOM     29  C   UNL     1     115.957 118.795 128.144  1.00  0.00     0.118 C 
BRANCH  29  30
ATOM     30  O   UNL     1     114.756 118.804 128.872  1.00  0.00    -0.393 OA
ATOM     31  H   UNL     1     114.381 117.888 128.860  1.00  0.00     0.210 HD
ENDBRANCH  29  30
ENDBRANCH   1  11
TORSDOF 6
ENDMDL
MODEL 7
REMARK VINA RESULT:    -6.906      2.757      4.741
REMARK INTER + INTRA:         -10.100
REMARK INTER:                  -9.467
REMARK INTRA:                  -0.633
REMARK UNBOUND:                -0.973
REMARK SMILES CC[C@@H](C=C[C@H](C)[C@@H]1CC[C@@H]2[C@@H]3CC=C4C[C@H](O)CC[C@@]4(C)[C@@H]3CC[C@]21C)C(C)C
REMARK SMILES IDX 6 1 7 2 5 3 4 4 3 5 2 6 1 7 28 8 29 9 30 10 8 11 9 12 26 13
REMARK SMILES IDX 10 14 11 15 25 16 27 17 12 18 24 19 23 20 13 21 21 22 14 23
REMARK SMILES IDX 15 24 20 25 22 26 16 27 19 28 17 29 18 30
REMARK H PARENT 18 31
REMARK Flexibility Score: inf
ROOT
ATOM      1  C   UNL     1     117.308 126.009 127.465  1.00  0.00     0.012 C 
ATOM      2  C   UNL     1     115.884 126.549 127.658  1.00  0.00     0.012 C 
ENDROOT
BRANCH   1   3
ATOM      3  C   UNL     1     118.336 126.884 128.156  1.00  0.00    -0.028 C 
ATOM      4  C   UNL     1     118.023 127.920 128.951  1.00  0.00    -0.027 C 
BRANCH   4   5
ATOM      5  C   UNL     1     119.085 128.718 129.682  1.00  0.00     0.014 C 
BRANCH   5   6
ATOM      6  C   UNL     1     118.477 129.372 130.958  1.00  0.00     0.004 C 
ATOM      7  C   UNL     1     117.451 128.469 131.635  1.00  0.00     0.004 C 
ENDBRANCH   5   6
BRANCH   5   8
ATOM      8  C   UNL     1     119.785 129.789 128.768  1.00  0.00    -0.011 C 
ATOM      9  C   UNL     1     119.337 131.225 129.096  1.00  0.00     0.008 C 
ATOM     10  C   UNL     1     121.323 129.700 128.768  1.00  0.00     0.008 C 
ENDBRANCH   5   8
ENDBRANCH   4   5
ENDBRANCH   1   3
BRANCH   1  11
ATOM     11  C   UNL     1     117.472 124.530 127.933  1.00  0.00     0.002 C 
ATOM     12  C   UNL     1     116.268 123.649 127.489  1.00  0.00     0.005 C 
ATOM     13  C   UNL     1     117.616 124.206 129.460  1.00  0.00    -0.026 C 
ATOM     14  C   UNL     1     116.150 122.498 128.499  1.00  0.00     0.005 C 
ATOM     15  C   UNL     1     117.361 122.685 129.396  1.00  0.00    -0.001 C 
ATOM     16  C   UNL     1     119.028 124.406 130.070  1.00  0.00     0.007 C 
ATOM     17  C   UNL     1     116.554 125.004 130.289  1.00  0.00     0.012 C 
ATOM     18  C   UNL     1     117.464 121.891 130.718  1.00  0.00     0.000 C 
ATOM     19  C   UNL     1     119.191 123.661 131.428  1.00  0.00     0.005 C 
ATOM     20  C   UNL     1     118.865 122.136 131.340  1.00  0.00     0.003 C 
ATOM     21  C   UNL     1     116.357 122.145 131.746  1.00  0.00     0.031 C 
ATOM     22  C   UNL     1     119.072 121.273 132.673  1.00  0.00    -0.008 C 
ATOM     23  C   UNL     1     116.533 121.219 132.905  1.00  0.00    -0.027 C 
ATOM     24  C   UNL     1     117.751 120.826 133.334  1.00  0.00    -0.065 C 
ATOM     25  C   UNL     1     119.844 119.976 132.261  1.00  0.00     0.014 C 
ATOM     26  C   UNL     1     119.915 122.045 133.718  1.00  0.00     0.016 C 
ATOM     27  C   UNL     1     117.822 119.779 134.430  1.00  0.00     0.063 C 
ATOM     28  C   UNL     1     119.959 118.921 133.372  1.00  0.00     0.033 C 
ATOM     29  C   UNL     1     118.576 118.540 133.911  1.00  0.00     0.118 C 
BRANCH  29  30
ATOM     30  O   UNL     1     118.705 117.553 134.903  1.00  0.00    -0.393 OA
ATOM     31  H   UNL     1     117.955 116.915 134.803  1.00  0.00     0.210 HD
ENDBRANCH  29  30
ENDBRANCH   1  11
TORSDOF 6
ENDMDL
MODEL 8
REMARK VINA RESULT:    -6.881      4.973      8.477
REMARK INTER + INTRA:         -10.066
REMARK INTER:                  -8.933
REMARK INTRA:                  -1.133
REMARK UNBOUND:                -0.973
REMARK SMILES CC[C@@H](C=C[C@H](C)[C@@H]1CC[C@@H]2[C@@H]3CC=C4C[C@H](O)CC[C@@]4(C)[C@@H]3CC[C@]21C)C(C)C
REMARK SMILES IDX 6 1 7 2 5 3 4 4 3 5 2 6 1 7 28 8 29 9 30 10 8 11 9 12 26 13
REMARK SMILES IDX 10 14 11 15 25 16 27 17 12 18 24 19 23 20 13 21 21 22 14 23
REMARK SMILES IDX 15 24 20 25 22 26 16 27 19 28 17 29 18 30
REMARK H PARENT 18 31
REMARK Flexibility Score: inf
ROOT
ATOM      1  C   UNL     1     117.134 123.935 130.689  1.00  0.00     0.012 C 
ATOM      2  C   UNL     1     116.484 125.115 129.951  1.00  0.00     0.012 C 
ENDROOT
BRANCH   1   3
ATOM      3  C   UNL     1     116.187 122.756 130.800  1.00  0.00    -0.028 C 
ATOM      4  C   UNL     1     115.028 122.661 130.130  1.00  0.00    -0.027 C 
BRANCH   4   5
ATOM      5  C   UNL     1     114.150 121.427 130.215  1.00  0.00     0.014 C 
BRANCH   5   6
ATOM      6  C   UNL     1     114.662 120.486 131.345  1.00  0.00     0.004 C 
ATOM      7  C   UNL     1     113.704 120.434 132.530  1.00  0.00     0.004 C 
ENDBRANCH   5   6
BRANCH   5   8
ATOM      8  C   UNL     1     114.029 120.666 128.846  1.00  0.00    -0.011 C 
ATOM      9  C   UNL     1     114.360 121.565 127.640  1.00  0.00     0.008 C 
ATOM     10  C   UNL     1     114.855 119.367 128.778  1.00  0.00     0.008 C 
ENDBRANCH   5   8
ENDBRANCH   4   5
ENDBRANCH   1   3
BRANCH   1  11
ATOM     11  C   UNL     1     118.478 123.475 130.045  1.00  0.00     0.002 C 
ATOM     12  C   UNL     1     119.416 124.681 129.745  1.00  0.00     0.005 C 
ATOM     13  C   UNL     1     118.465 122.679 128.695  1.00  0.00    -0.026 C 
ATOM     14  C   UNL     1     120.318 124.274 128.570  1.00  0.00     0.005 C 
ATOM     15  C   UNL     1     119.960 122.817 128.334  1.00  0.00    -0.001 C 
ATOM     16  C   UNL     1     118.160 121.162 128.799  1.00  0.00     0.007 C 
ATOM     17  C   UNL     1     117.490 123.356 127.674  1.00  0.00     0.012 C 
ATOM     18  C   UNL     1     120.449 122.108 127.050  1.00  0.00     0.000 C 
ATOM     19  C   UNL     1     118.595 120.387 127.519  1.00  0.00     0.005 C 
ATOM     20  C   UNL     1     120.098 120.599 127.149  1.00  0.00     0.003 C 
ATOM     21  C   UNL     1     119.961 122.699 125.724  1.00  0.00     0.031 C 
ATOM     22  C   UNL     1     120.653 119.786 125.887  1.00  0.00    -0.008 C 
ATOM     23  C   UNL     1     120.616 121.982 124.589  1.00  0.00    -0.027 C 
ATOM     24  C   UNL     1     120.925 120.669 124.650  1.00  0.00    -0.065 C 
ATOM     25  C   UNL     1     122.021 119.159 126.315  1.00  0.00     0.014 C 
ATOM     26  C   UNL     1     119.687 118.646 125.480  1.00  0.00     0.016 C 
ATOM     27  C   UNL     1     121.710 120.064 123.501  1.00  0.00     0.063 C 
ATOM     28  C   UNL     1     122.812 118.507 125.170  1.00  0.00     0.033 C 
ATOM     29  C   UNL     1     123.045 119.501 124.029  1.00  0.00     0.118 C 
BRANCH  29  30
ATOM     30  O   UNL     1     123.795 118.892 123.008  1.00  0.00    -0.393 OA
ATOM     31  H   UNL     1     123.524 119.293 122.145  1.00  0.00     0.210 HD
ENDBRANCH  29  30
ENDBRANCH   1  11
TORSDOF 6
ENDMDL
MODEL 9
REMARK VINA RESULT:    -6.876      3.526      9.705
REMARK INTER + INTRA:         -10.060
REMARK INTER:                  -9.116
REMARK INTRA:                  -0.943
REMARK UNBOUND:                -0.973
REMARK SMILES CC[C@@H](C=C[C@H](C)[C@@H]1CC[C@@H]2[C@@H]3CC=C4C[C@H](O)CC[C@@]4(C)[C@@H]3CC[C@]21C)C(C)C
REMARK SMILES IDX 6 1 7 2 5 3 4 4 3 5 2 6 1 7 28 8 29 9 30 10 8 11 9 12 26 13
REMARK SMILES IDX 10 14 11 15 25 16 27 17 12 18 24 19 23 20 13 21 21 22 14 23
REMARK SMILES IDX 15 24 20 25 22 26 16 27 19 28 17 29 18 30
REMARK H PARENT 18 31
REMARK Flexibility Score: inf
ROOT
ATOM      1  C   UNL     1     114.112 120.174 127.872  1.00  0.00     0.012 C 
ATOM      2  C   UNL     1     114.036 119.924 126.358  1.00  0.00     0.012 C 
ENDROOT
BRANCH   1   3
ATOM      3  C   UNL     1     115.300 119.467 128.495  1.00  0.00    -0.028 C 
ATOM      4  C   UNL     1     116.050 118.557 127.855  1.00  0.00    -0.027 C 
BRANCH   4   5
ATOM      5  C   UNL     1     117.275 117.934 128.495  1.00  0.00     0.014 C 
BRANCH   5   6
ATOM      6  C   UNL     1     118.109 119.026 129.228  1.00  0.00     0.004 C 
ATOM      7  C   UNL     1     119.071 119.745 128.287  1.00  0.00     0.004 C 
ENDBRANCH   5   6
BRANCH   5   8
ATOM      8  C   UNL     1     118.158 117.128 127.474  1.00  0.00    -0.011 C 
ATOM      9  C   UNL     1     118.912 115.962 128.139  1.00  0.00     0.008 C 
ATOM     10  C   UNL     1     117.384 116.624 126.241  1.00  0.00     0.008 C 
ENDBRANCH   5   8
ENDBRANCH   4   5
ENDBRANCH   1   3
BRANCH   1  11
ATOM     11  C   UNL     1     114.144 121.689 128.242  1.00  0.00     0.002 C 
ATOM     12  C   UNL     1     113.348 122.550 127.217  1.00  0.00     0.005 C 
ATOM     13  C   UNL     1     115.517 122.436 128.356  1.00  0.00    -0.026 C 
ATOM     14  C   UNL     1     113.964 123.956 127.230  1.00  0.00     0.005 C 
ATOM     15  C   UNL     1     114.989 123.887 128.348  1.00  0.00    -0.001 C 
ATOM     16  C   UNL     1     116.293 122.241 129.685  1.00  0.00     0.007 C 
ATOM     17  C   UNL     1     116.435 122.077 127.139  1.00  0.00     0.012 C 
ATOM     18  C   UNL     1     116.027 125.021 128.506  1.00  0.00     0.000 C 
ATOM     19  C   UNL     1     117.385 123.332 129.892  1.00  0.00     0.005 C 
ATOM     20  C   UNL     1     116.826 124.789 129.817  1.00  0.00     0.003 C 
ATOM     21  C   UNL     1     116.972 125.242 127.320  1.00  0.00     0.031 C 
ATOM     22  C   UNL     1     117.864 125.977 130.087  1.00  0.00    -0.008 C 
ATOM     23  C   UNL     1     117.822 126.442 127.579  1.00  0.00    -0.027 C 
ATOM     24  C   UNL     1     118.235 126.777 128.821  1.00  0.00    -0.065 C 
ATOM     25  C   UNL     1     117.170 126.973 131.074  1.00  0.00     0.014 C 
ATOM     26  C   UNL     1     119.165 125.451 130.741  1.00  0.00     0.016 C 
ATOM     27  C   UNL     1     118.981 128.087 128.998  1.00  0.00     0.063 C 
ATOM     28  C   UNL     1     117.932 128.288 131.296  1.00  0.00     0.033 C 
ATOM     29  C   UNL     1     118.200 128.998 129.966  1.00  0.00     0.118 C 
BRANCH  29  30
ATOM     30  O   UNL     1     118.870 130.212 130.196  1.00  0.00    -0.393 OA
ATOM     31  H   UNL     1     118.616 130.845 129.480  1.00  0.00     0.210 HD
ENDBRANCH  29  30
ENDBRANCH   1  11
TORSDOF 6
ENDMDL
