MODEL 1
REMARK VINA RESULT:    -3.688      0.000      0.000
REMARK INTER + INTRA:         -11.937
REMARK INTER:                  -9.724
REMARK INTRA:                  -2.212
REMARK UNBOUND:                -2.212
REMARK SMILES CCCCCCCCCCCCCCCCCCCCCCCCCCCCCC(=O)[O-]
REMARK SMILES IDX 16 1 17 2 18 3 19 4 20 5 21 6 22 7 23 8 24 9 25 10 26 11
REMARK SMILES IDX 27 12 28 13 29 14 30 15 31 16 32 17 15 18 14 19 13 20 12 21
REMARK SMILES IDX 11 22 10 23 9 24 8 25 7 26 6 27 5 28 4 29 3 30 2 31 1 32
REMARK H PARENT
REMARK Flexibility Score: inf
ROOT
ATOM      1  C   UNL     1     -18.810  44.172   0.282  1.00  0.00     0.000 C 
ENDROOT
BRANCH   1   2
ATOM      2  C   UNL     1     -17.874  43.704  -0.851  1.00  0.00     0.000 C 
BRANCH   2   3
ATOM      3  C   UNL     1     -18.603  42.983  -1.999  1.00  0.00     0.000 C 
BRANCH   3   4
ATOM      4  C   UNL     1     -17.785  42.947  -3.299  1.00  0.00     0.000 C 
BRANCH   4   5
ATOM      5  C   UNL     1     -16.421  42.254  -3.129  1.00  0.00     0.000 C 
BRANCH   5   6
ATOM      6  C   UNL     1     -16.142  41.116  -4.128  1.00  0.00     0.000 C 
BRANCH   6   7
ATOM      7  C   UNL     1     -17.429  40.463  -4.660  1.00  0.00     0.000 C 
BRANCH   7   8
ATOM      8  C   UNL     1     -17.578  40.585  -6.188  1.00  0.00     0.000 C 
BRANCH   8   9
ATOM      9  C   UNL     1     -18.259  41.876  -6.685  1.00  0.00     0.000 C 
BRANCH   9  10
ATOM     10  C   UNL     1     -18.894  41.785  -8.083  1.00  0.00     0.000 C 
BRANCH  10  11
ATOM     11  C   UNL     1     -20.428  41.709  -8.039  1.00  0.00     0.000 C 
BRANCH  11  12
ATOM     12  C   UNL     1     -20.893  40.445  -7.307  1.00  0.00     0.000 C 
BRANCH  12  13
ATOM     13  C   UNL     1     -21.858  40.791  -6.165  1.00  0.00     0.006 C 
BRANCH  13  14
ATOM     14  C   UNL     1     -23.123  41.499  -6.667  1.00  0.00     0.053 C 
BRANCH  14  15
ATOM     15  C   UNL     1     -23.175  42.926  -6.220  1.00  0.00     0.041 C 
ATOM     16  O   UNL     1     -22.257  43.399  -5.497  1.00  0.00    -0.550 OA
ATOM     17  O   UNL     1     -24.256  43.727  -6.571  1.00  0.00    -0.550 OA
ENDBRANCH  14  15
ENDBRANCH  13  14
ENDBRANCH  12  13
ENDBRANCH  11  12
ENDBRANCH  10  11
ENDBRANCH   9  10
ENDBRANCH   8   9
ENDBRANCH   7   8
ENDBRANCH   6   7
ENDBRANCH   5   6
ENDBRANCH   4   5
ENDBRANCH   3   4
ENDBRANCH   2   3
ENDBRANCH   1   2
BRANCH   1  18
ATOM     18  C   UNL     1     -18.621  43.358   1.575  1.00  0.00     0.000 C 
BRANCH  18  19
ATOM     19  C   UNL     1     -19.687  43.684   2.633  1.00  0.00     0.000 C 
BRANCH  19  20
ATOM     20  C   UNL     1     -19.201  43.383   4.061  1.00  0.00     0.000 C 
BRANCH  20  21
ATOM     21  C   UNL     1     -19.145  41.876   4.371  1.00  0.00     0.000 C 
BRANCH  21  22
ATOM     22  C   UNL     1     -20.519  41.187   4.512  1.00  0.00     0.000 C 
BRANCH  22  23
ATOM     23  C   UNL     1     -20.469  39.734   5.021  1.00  0.00     0.000 C 
BRANCH  23  24
ATOM     24  C   UNL     1     -21.813  39.171   5.528  1.00  0.00    -0.000 C 
BRANCH  24  25
ATOM     25  C   UNL     1     -22.248  39.668   6.919  1.00  0.00    -0.000 C 
BRANCH  25  26
ATOM     26  C   UNL     1     -22.258  38.555   7.979  1.00  0.00    -0.000 C 
BRANCH  26  27
ATOM     27  C   UNL     1     -23.563  37.740   7.974  1.00  0.00    -0.000 C 
BRANCH  27  28
ATOM     28  C   UNL     1     -23.416  36.344   7.333  1.00  0.00    -0.000 C 
BRANCH  28  29
ATOM     29  C   UNL     1     -22.068  35.689   7.673  1.00  0.00    -0.000 C 
BRANCH  29  30
ATOM     30  C   UNL     1     -21.182  35.580   6.423  1.00  0.00    -0.000 C 
BRANCH  30  31
ATOM     31  C   UNL     1     -19.788  36.187   6.632  1.00  0.00    -0.003 C 
ATOM     32  C   UNL     1     -19.370  36.217   8.102  1.00  0.00     0.004 C 
ENDBRANCH  30  31
ENDBRANCH  29  30
ENDBRANCH  28  29
ENDBRANCH  27  28
ENDBRANCH  26  27
ENDBRANCH  25  26
ENDBRANCH  24  25
ENDBRANCH  23  24
ENDBRANCH  22  23
ENDBRANCH  21  22
ENDBRANCH  20  21
ENDBRANCH  19  20
ENDBRANCH  18  19
ENDBRANCH   1  18
TORSDOF 28
ENDMDL
MODEL 2
REMARK VINA RESULT:    -3.551      4.002     12.720
REMARK INTER + INTRA:         -11.576
REMARK INTER:                  -9.116
REMARK INTRA:                  -2.461
REMARK UNBOUND:                -2.212
REMARK SMILES CCCCCCCCCCCCCCCCCCCCCCCCCCCCCC(=O)[O-]
REMARK SMILES IDX 16 1 17 2 18 3 19 4 20 5 21 6 22 7 23 8 24 9 25 10 26 11
REMARK SMILES IDX 27 12 28 13 29 14 30 15 31 16 32 17 15 18 14 19 13 20 12 21
REMARK SMILES IDX 11 22 10 23 9 24 8 25 7 26 6 27 5 28 4 29 3 30 2 31 1 32
REMARK H PARENT
REMARK Flexibility Score: inf
ROOT
ATOM      1  C   UNL     1     -18.621  43.369   1.574  1.00  0.00     0.000 C 
ENDROOT
BRANCH   1   2
ATOM      2  C   UNL     1     -19.618  43.778   2.679  1.00  0.00     0.000 C 
BRANCH   2   3
ATOM      3  C   UNL     1     -19.160  43.396   4.098  1.00  0.00     0.000 C 
BRANCH   3   4
ATOM      4  C   UNL     1     -19.036  41.878   4.299  1.00  0.00     0.000 C 
BRANCH   4   5
ATOM      5  C   UNL     1     -20.343  41.230   4.789  1.00  0.00     0.000 C 
BRANCH   5   6
ATOM      6  C   UNL     1     -20.469  39.723   4.500  1.00  0.00     0.000 C 
BRANCH   6   7
ATOM      7  C   UNL     1     -20.944  38.920   5.723  1.00  0.00     0.000 C 
BRANCH   7   8
ATOM      8  C   UNL     1     -21.520  37.541   5.351  1.00  0.00     0.000 C 
BRANCH   8   9
ATOM      9  C   UNL     1     -20.876  36.339   6.073  1.00  0.00     0.000 C 
BRANCH   9  10
ATOM     10  C   UNL     1     -19.574  36.650   6.830  1.00  0.00     0.000 C 
BRANCH  10  11
ATOM     11  C   UNL     1     -19.645  36.277   8.318  1.00  0.00     0.000 C 
BRANCH  11  12
ATOM     12  C   UNL     1     -21.044  35.771   8.690  1.00  0.00     0.000 C 
BRANCH  12  13
ATOM     13  C   UNL     1     -21.754  36.753   9.632  1.00  0.00     0.006 C 
BRANCH  13  14
ATOM     14  C   UNL     1     -22.577  37.798   8.869  1.00  0.00     0.053 C 
BRANCH  14  15
ATOM     15  C   UNL     1     -23.943  37.288   8.529  1.00  0.00     0.041 C 
ATOM     16  O   UNL     1     -24.940  37.633   9.219  1.00  0.00    -0.550 OA
ATOM     17  O   UNL     1     -24.112  36.402   7.472  1.00  0.00    -0.550 OA
ENDBRANCH  14  15
ENDBRANCH  13  14
ENDBRANCH  12  13
ENDBRANCH  11  12
ENDBRANCH  10  11
ENDBRANCH   9  10
ENDBRANCH   8   9
ENDBRANCH   7   8
ENDBRANCH   6   7
ENDBRANCH   5   6
ENDBRANCH   4   5
ENDBRANCH   3   4
ENDBRANCH   2   3
ENDBRANCH   1   2
BRANCH   1  18
ATOM     18  C   UNL     1     -18.861  44.128   0.256  1.00  0.00     0.000 C 
BRANCH  18  19
ATOM     19  C   UNL     1     -17.871  43.717  -0.845  1.00  0.00     0.000 C 
BRANCH  19  20
ATOM     20  C   UNL     1     -18.544  42.891  -1.955  1.00  0.00     0.000 C 
BRANCH  20  21
ATOM     21  C   UNL     1     -17.789  42.958  -3.295  1.00  0.00     0.000 C 
BRANCH  21  22
ATOM     22  C   UNL     1     -16.321  42.488  -3.241  1.00  0.00     0.000 C 
BRANCH  22  23
ATOM     23  C   UNL     1     -15.968  41.342  -4.208  1.00  0.00     0.000 C 
BRANCH  23  24
ATOM     24  C   UNL     1     -16.953  40.155  -4.205  1.00  0.00    -0.000 C 
BRANCH  24  25
ATOM     25  C   UNL     1     -17.647  39.875  -5.550  1.00  0.00    -0.000 C 
BRANCH  25  26
ATOM     26  C   UNL     1     -17.681  41.102  -6.476  1.00  0.00    -0.000 C 
BRANCH  26  27
ATOM     27  C   UNL     1     -19.027  41.262  -7.203  1.00  0.00    -0.000 C 
BRANCH  27  28
ATOM     28  C   UNL     1     -20.250  40.973  -6.306  1.00  0.00    -0.000 C 
BRANCH  28  29
ATOM     29  C   UNL     1     -20.627  42.180  -5.433  1.00  0.00    -0.000 C 
BRANCH  29  30
ATOM     30  C   UNL     1     -21.998  42.742  -5.836  1.00  0.00    -0.000 C 
BRANCH  30  31
ATOM     31  C   UNL     1     -22.077  43.093  -7.329  1.00  0.00    -0.003 C 
ATOM     32  C   UNL     1     -21.363  44.401  -7.668  1.00  0.00     0.004 C 
ENDBRANCH  30  31
ENDBRANCH  29  30
ENDBRANCH  28  29
ENDBRANCH  27  28
ENDBRANCH  26  27
ENDBRANCH  25  26
ENDBRANCH  24  25
ENDBRANCH  23  24
ENDBRANCH  22  23
ENDBRANCH  21  22
ENDBRANCH  20  21
ENDBRANCH  19  20
ENDBRANCH  18  19
ENDBRANCH   1  18
TORSDOF 28
ENDMDL
MODEL 3
REMARK VINA RESULT:    -3.539      1.181      2.393
REMARK INTER + INTRA:         -11.543
REMARK INTER:                  -9.050
REMARK INTRA:                  -2.493
REMARK UNBOUND:                -2.212
REMARK SMILES CCCCCCCCCCCCCCCCCCCCCCCCCCCCCC(=O)[O-]
REMARK SMILES IDX 16 1 17 2 18 3 19 4 20 5 21 6 22 7 23 8 24 9 25 10 26 11
REMARK SMILES IDX 27 12 28 13 29 14 30 15 31 16 32 17 15 18 14 19 13 20 12 21
REMARK SMILES IDX 11 22 10 23 9 24 8 25 7 26 6 27 5 28 4 29 3 30 2 31 1 32
REMARK H PARENT
REMARK Flexibility Score: inf
ROOT
ATOM      1  C   UNL     1     -19.395  44.074   2.457  1.00  0.00     0.000 C 
ENDROOT
BRANCH   1   2
ATOM      2  C   UNL     1     -18.631  43.349   1.330  1.00  0.00     0.000 C 
BRANCH   2   3
ATOM      3  C   UNL     1     -18.644  44.102  -0.012  1.00  0.00     0.000 C 
BRANCH   3   4
ATOM      4  C   UNL     1     -17.788  43.420  -1.091  1.00  0.00     0.000 C 
BRANCH   4   5
ATOM      5  C   UNL     1     -18.609  42.974  -2.313  1.00  0.00     0.000 C 
BRANCH   5   6
ATOM      6  C   UNL     1     -17.829  42.936  -3.640  1.00  0.00     0.000 C 
BRANCH   6   7
ATOM      7  C   UNL     1     -16.344  42.586  -3.447  1.00  0.00     0.000 C 
BRANCH   7   8
ATOM      8  C   UNL     1     -16.012  41.133  -3.835  1.00  0.00     0.000 C 
BRANCH   8   9
ATOM      9  C   UNL     1     -17.194  40.309  -4.386  1.00  0.00     0.000 C 
BRANCH   9  10
ATOM     10  C   UNL     1     -17.107  39.958  -5.881  1.00  0.00     0.000 C 
BRANCH  10  11
ATOM     11  C   UNL     1     -18.331  40.434  -6.677  1.00  0.00     0.000 C 
BRANCH  11  12
ATOM     12  C   UNL     1     -18.282  41.950  -6.905  1.00  0.00     0.000 C 
BRANCH  12  13
ATOM     13  C   UNL     1     -19.694  42.529  -7.070  1.00  0.00     0.006 C 
BRANCH  13  14
ATOM     14  C   UNL     1     -20.592  42.224  -5.865  1.00  0.00     0.053 C 
BRANCH  14  15
ATOM     15  C   UNL     1     -21.818  41.463  -6.265  1.00  0.00     0.041 C 
ATOM     16  O   UNL     1     -21.865  40.212  -6.115  1.00  0.00    -0.550 OA
ATOM     17  O   UNL     1     -22.895  42.129  -6.836  1.00  0.00    -0.550 OA
ENDBRANCH  14  15
ENDBRANCH  13  14
ENDBRANCH  12  13
ENDBRANCH  11  12
ENDBRANCH  10  11
ENDBRANCH   9  10
ENDBRANCH   8   9
ENDBRANCH   7   8
ENDBRANCH   6   7
ENDBRANCH   5   6
ENDBRANCH   4   5
ENDBRANCH   3   4
ENDBRANCH   2   3
ENDBRANCH   1   2
BRANCH   1  18
ATOM     18  C   UNL     1     -18.789  43.801   3.846  1.00  0.00     0.000 C 
BRANCH  18  19
ATOM     19  C   UNL     1     -19.727  42.975   4.741  1.00  0.00     0.000 C 
BRANCH  19  20
ATOM     20  C   UNL     1     -19.778  41.496   4.323  1.00  0.00     0.000 C 
BRANCH  20  21
ATOM     21  C   UNL     1     -21.181  41.046   3.878  1.00  0.00     0.000 C 
BRANCH  21  22
ATOM     22  C   UNL     1     -21.997  40.295   4.951  1.00  0.00     0.000 C 
BRANCH  22  23
ATOM     23  C   UNL     1     -21.654  38.801   5.102  1.00  0.00     0.000 C 
BRANCH  23  24
ATOM     24  C   UNL     1     -22.760  37.935   5.739  1.00  0.00    -0.000 C 
BRANCH  24  25
ATOM     25  C   UNL     1     -23.095  38.272   7.203  1.00  0.00    -0.000 C 
BRANCH  25  26
ATOM     26  C   UNL     1     -23.823  37.131   7.931  1.00  0.00    -0.000 C 
BRANCH  26  27
ATOM     27  C   UNL     1     -23.438  37.034   9.418  1.00  0.00    -0.000 C 
BRANCH  27  28
ATOM     28  C   UNL     1     -21.919  37.131   9.670  1.00  0.00    -0.000 C 
BRANCH  28  29
ATOM     29  C   UNL     1     -21.168  35.884   9.177  1.00  0.00    -0.000 C 
BRANCH  29  30
ATOM     30  C   UNL     1     -19.719  36.230   8.803  1.00  0.00    -0.000 C 
BRANCH  30  31
ATOM     31  C   UNL     1     -19.454  36.116   7.295  1.00  0.00    -0.003 C 
ATOM     32  C   UNL     1     -20.631  35.506   6.532  1.00  0.00     0.004 C 
ENDBRANCH  30  31
ENDBRANCH  29  30
ENDBRANCH  28  29
ENDBRANCH  27  28
ENDBRANCH  26  27
ENDBRANCH  25  26
ENDBRANCH  24  25
ENDBRANCH  23  24
ENDBRANCH  22  23
ENDBRANCH  21  22
ENDBRANCH  20  21
ENDBRANCH  19  20
ENDBRANCH  18  19
ENDBRANCH   1  18
TORSDOF 28
ENDMDL
MODEL 4
REMARK VINA RESULT:    -3.526      4.209     12.239
REMARK INTER + INTRA:         -11.510
REMARK INTER:                  -8.937
REMARK INTRA:                  -2.573
REMARK UNBOUND:                -2.212
REMARK SMILES CCCCCCCCCCCCCCCCCCCCCCCCCCCCCC(=O)[O-]
REMARK SMILES IDX 16 1 17 2 18 3 19 4 20 5 21 6 22 7 23 8 24 9 25 10 26 11
REMARK SMILES IDX 27 12 28 13 29 14 30 15 31 16 32 17 15 18 14 19 13 20 12 21
REMARK SMILES IDX 11 22 10 23 9 24 8 25 7 26 6 27 5 28 4 29 3 30 2 31 1 32
REMARK H PARENT
REMARK Flexibility Score: inf
ROOT
ATOM      1  C   UNL     1     -17.812  42.917  -3.345  1.00  0.00     0.000 C 
ENDROOT
BRANCH   1   2
ATOM      2  C   UNL     1     -18.622  43.016  -2.036  1.00  0.00     0.000 C 
BRANCH   2   3
ATOM      3  C   UNL     1     -17.859  43.693  -0.884  1.00  0.00     0.000 C 
BRANCH   3   4
ATOM      4  C   UNL     1     -18.783  44.165   0.250  1.00  0.00     0.000 C 
BRANCH   4   5
ATOM      5  C   UNL     1     -18.629  43.332   1.534  1.00  0.00     0.000 C 
BRANCH   5   6
ATOM      6  C   UNL     1     -19.520  43.777   2.708  1.00  0.00     0.000 C 
BRANCH   6   7
ATOM      7  C   UNL     1     -19.005  43.279   4.069  1.00  0.00     0.000 C 
BRANCH   7   8
ATOM      8  C   UNL     1     -19.434  41.833   4.382  1.00  0.00     0.000 C 
BRANCH   8   9
ATOM      9  C   UNL     1     -20.834  41.434   3.871  1.00  0.00     0.000 C 
BRANCH   9  10
ATOM     10  C   UNL     1     -21.557  40.366   4.710  1.00  0.00     0.000 C 
BRANCH  10  11
ATOM     11  C   UNL     1     -21.001  38.952   4.484  1.00  0.00     0.000 C 
BRANCH  11  12
ATOM     12  C   UNL     1     -21.719  37.932   5.375  1.00  0.00     0.000 C 
BRANCH  12  13
ATOM     13  C   UNL     1     -22.520  38.632   6.481  1.00  0.00     0.006 C 
BRANCH  13  14
ATOM     14  C   UNL     1     -23.273  37.637   7.372  1.00  0.00     0.053 C 
BRANCH  14  15
ATOM     15  C   UNL     1     -22.338  36.840   8.227  1.00  0.00     0.041 C 
ATOM     16  O   UNL     1     -21.796  37.366   9.237  1.00  0.00    -0.550 OA
ATOM     17  O   UNL     1     -22.036  35.526   7.890  1.00  0.00    -0.550 OA
ENDBRANCH  14  15
ENDBRANCH  13  14
ENDBRANCH  12  13
ENDBRANCH  11  12
ENDBRANCH  10  11
ENDBRANCH   9  10
ENDBRANCH   8   9
ENDBRANCH   7   8
ENDBRANCH   6   7
ENDBRANCH   5   6
ENDBRANCH   4   5
ENDBRANCH   3   4
ENDBRANCH   2   3
ENDBRANCH   1   2
BRANCH   1  18
ATOM     18  C   UNL     1     -16.406  42.330  -3.123  1.00  0.00     0.000 C 
BRANCH  18  19
ATOM     19  C   UNL     1     -15.927  41.489  -4.317  1.00  0.00     0.000 C 
BRANCH  19  20
ATOM     20  C   UNL     1     -16.390  40.026  -4.222  1.00  0.00     0.000 C 
BRANCH  20  21
ATOM     21  C   UNL     1     -17.476  39.671  -5.253  1.00  0.00     0.000 C 
BRANCH  21  22
ATOM     22  C   UNL     1     -17.582  40.639  -6.450  1.00  0.00     0.000 C 
BRANCH  22  23
ATOM     23  C   UNL     1     -18.978  41.254  -6.668  1.00  0.00     0.000 C 
BRANCH  23  24
ATOM     24  C   UNL     1     -19.068  42.284  -7.813  1.00  0.00    -0.000 C 
BRANCH  24  25
ATOM     25  C   UNL     1     -18.948  43.756  -7.381  1.00  0.00    -0.000 C 
BRANCH  25  26
ATOM     26  C   UNL     1     -19.882  44.119  -6.215  1.00  0.00    -0.000 C 
BRANCH  26  27
ATOM     27  C   UNL     1     -20.930  45.177  -6.600  1.00  0.00    -0.000 C 
BRANCH  27  28
ATOM     28  C   UNL     1     -22.349  44.599  -6.793  1.00  0.00    -0.000 C 
BRANCH  28  29
ATOM     29  C   UNL     1     -22.500  43.209  -6.155  1.00  0.00    -0.000 C 
BRANCH  29  30
ATOM     30  C   UNL     1     -23.144  42.222  -7.139  1.00  0.00    -0.000 C 
BRANCH  30  31
ATOM     31  C   UNL     1     -23.473  40.870  -6.491  1.00  0.00    -0.003 C 
ATOM     32  C   UNL     1     -22.236  39.995  -6.286  1.00  0.00     0.004 C 
ENDBRANCH  30  31
ENDBRANCH  29  30
ENDBRANCH  28  29
ENDBRANCH  27  28
ENDBRANCH  26  27
ENDBRANCH  25  26
ENDBRANCH  24  25
ENDBRANCH  23  24
ENDBRANCH  22  23
ENDBRANCH  21  22
ENDBRANCH  20  21
ENDBRANCH  19  20
ENDBRANCH  18  19
ENDBRANCH   1  18
TORSDOF 28
ENDMDL
MODEL 5
REMARK VINA RESULT:    -3.499      4.234     12.455
REMARK INTER + INTRA:         -11.439
REMARK INTER:                  -9.105
REMARK INTRA:                  -2.334
REMARK UNBOUND:                -2.212
REMARK SMILES CCCCCCCCCCCCCCCCCCCCCCCCCCCCCC(=O)[O-]
REMARK SMILES IDX 16 1 17 2 18 3 19 4 20 5 21 6 22 7 23 8 24 9 25 10 26 11
REMARK SMILES IDX 27 12 28 13 29 14 30 15 31 16 32 17 15 18 14 19 13 20 12 21
REMARK SMILES IDX 11 22 10 23 9 24 8 25 7 26 6 27 5 28 4 29 3 30 2 31 1 32
REMARK H PARENT
REMARK Flexibility Score: inf
ROOT
ATOM      1  C   UNL     1     -18.626  43.006  -2.193  1.00  0.00     0.000 C 
ENDROOT
BRANCH   1   2
ATOM      2  C   UNL     1     -17.795  43.602  -1.038  1.00  0.00     0.000 C 
BRANCH   2   3
ATOM      3  C   UNL     1     -18.649  44.177   0.107  1.00  0.00     0.000 C 
BRANCH   3   4
ATOM      4  C   UNL     1     -18.627  43.301   1.369  1.00  0.00     0.000 C 
BRANCH   4   5
ATOM      5  C   UNL     1     -19.438  43.903   2.530  1.00  0.00     0.000 C 
BRANCH   5   6
ATOM      6  C   UNL     1     -18.997  43.448   3.933  1.00  0.00     0.000 C 
BRANCH   6   7
ATOM      7  C   UNL     1     -19.586  42.084   4.329  1.00  0.00     0.000 C 
BRANCH   7   8
ATOM      8  C   UNL     1     -20.869  41.734   3.552  1.00  0.00     0.000 C 
BRANCH   8   9
ATOM      9  C   UNL     1     -21.588  40.447   4.008  1.00  0.00     0.000 C 
BRANCH   9  10
ATOM     10  C   UNL     1     -20.840  39.620   5.068  1.00  0.00     0.000 C 
BRANCH  10  11
ATOM     11  C   UNL     1     -21.786  38.925   6.059  1.00  0.00     0.000 C 
BRANCH  11  12
ATOM     12  C   UNL     1     -22.273  37.582   5.502  1.00  0.00     0.000 C 
BRANCH  12  13
ATOM     13  C   UNL     1     -22.991  36.763   6.584  1.00  0.00     0.006 C 
BRANCH  13  14
ATOM     14  C   UNL     1     -22.019  35.905   7.403  1.00  0.00     0.053 C 
BRANCH  14  15
ATOM     15  C   UNL     1     -21.906  36.389   8.815  1.00  0.00     0.041 C 
ATOM     16  O   UNL     1     -22.183  37.585   9.101  1.00  0.00    -0.550 OA
ATOM     17  O   UNL     1     -21.459  35.528   9.812  1.00  0.00    -0.550 OA
ENDBRANCH  14  15
ENDBRANCH  13  14
ENDBRANCH  12  13
ENDBRANCH  11  12
ENDBRANCH  10  11
ENDBRANCH   9  10
ENDBRANCH   8   9
ENDBRANCH   7   8
ENDBRANCH   6   7
ENDBRANCH   5   6
ENDBRANCH   4   5
ENDBRANCH   3   4
ENDBRANCH   2   3
ENDBRANCH   1   2
BRANCH   1  18
ATOM     18  C   UNL     1     -17.774  42.724  -3.444  1.00  0.00     0.000 C 
BRANCH  18  19
ATOM     19  C   UNL     1     -16.562  41.830  -3.137  1.00  0.00     0.000 C 
BRANCH  19  20
ATOM     20  C   UNL     1     -16.332  40.766  -4.223  1.00  0.00     0.000 C 
BRANCH  20  21
ATOM     21  C   UNL     1     -17.643  40.170  -4.767  1.00  0.00     0.000 C 
BRANCH  21  22
ATOM     22  C   UNL     1     -17.771  40.168  -6.305  1.00  0.00     0.000 C 
BRANCH  22  23
ATOM     23  C   UNL     1     -17.857  41.563  -6.953  1.00  0.00     0.000 C 
BRANCH  23  24
ATOM     24  C   UNL     1     -18.815  41.669  -8.157  1.00  0.00    -0.000 C 
BRANCH  24  25
ATOM     25  C   UNL     1     -20.103  42.471  -7.901  1.00  0.00    -0.000 C 
BRANCH  25  26
ATOM     26  C   UNL     1     -20.151  43.103  -6.500  1.00  0.00    -0.000 C 
BRANCH  26  27
ATOM     27  C   UNL     1     -21.069  42.336  -5.533  1.00  0.00    -0.000 C 
BRANCH  27  28
ATOM     28  C   UNL     1     -21.774  41.125  -6.181  1.00  0.00    -0.000 C 
BRANCH  28  29
ATOM     29  C   UNL     1     -23.287  41.348  -6.333  1.00  0.00    -0.000 C 
BRANCH  29  30
ATOM     30  C   UNL     1     -23.666  42.794  -5.980  1.00  0.00    -0.000 C 
BRANCH  30  31
ATOM     31  C   UNL     1     -24.085  43.612  -7.209  1.00  0.00    -0.003 C 
ATOM     32  C   UNL     1     -25.035  44.759  -6.861  1.00  0.00     0.004 C 
ENDBRANCH  30  31
ENDBRANCH  29  30
ENDBRANCH  28  29
ENDBRANCH  27  28
ENDBRANCH  26  27
ENDBRANCH  25  26
ENDBRANCH  24  25
ENDBRANCH  23  24
ENDBRANCH  22  23
ENDBRANCH  21  22
ENDBRANCH  20  21
ENDBRANCH  19  20
ENDBRANCH  18  19
ENDBRANCH   1  18
TORSDOF 28
ENDMDL
MODEL 6
REMARK VINA RESULT:    -3.491      7.468     10.386
REMARK INTER + INTRA:         -11.419
REMARK INTER:                  -9.285
REMARK INTRA:                  -2.134
REMARK UNBOUND:                -2.212
REMARK SMILES CCCCCCCCCCCCCCCCCCCCCCCCCCCCCC(=O)[O-]
REMARK SMILES IDX 16 1 17 2 18 3 19 4 20 5 21 6 22 7 23 8 24 9 25 10 26 11
REMARK SMILES IDX 27 12 28 13 29 14 30 15 31 16 32 17 15 18 14 19 13 20 12 21
REMARK SMILES IDX 11 22 10 23 9 24 8 25 7 26 6 27 5 28 4 29 3 30 2 31 1 32
REMARK H PARENT
REMARK Flexibility Score: inf
ROOT
ATOM      1  C   UNL     1     -22.404  41.534  -7.691  1.00  0.00     0.000 C 
ENDROOT
BRANCH   1   2
ATOM      2  C   UNL     1     -22.734  42.067  -9.101  1.00  0.00     0.000 C 
BRANCH   2   3
ATOM      3  C   UNL     1     -23.131  43.554  -9.124  1.00  0.00     0.000 C 
BRANCH   3   4
ATOM      4  C   UNL     1     -24.632  43.776  -8.885  1.00  0.00     0.000 C 
BRANCH   4   5
ATOM      5  C   UNL     1     -24.919  44.651  -7.651  1.00  0.00     0.000 C 
BRANCH   5   6
ATOM      6  C   UNL     1     -25.010  43.884  -6.319  1.00  0.00     0.000 C 
BRANCH   6   7
ATOM      7  C   UNL     1     -23.636  43.419  -5.806  1.00  0.00     0.000 C 
BRANCH   7   8
ATOM      8  C   UNL     1     -22.781  44.570  -5.245  1.00  0.00     0.000 C 
BRANCH   8   9
ATOM      9  C   UNL     1     -23.396  45.978  -5.384  1.00  0.00     0.000 C 
BRANCH   9  10
ATOM     10  C   UNL     1     -22.488  47.027  -6.050  1.00  0.00     0.000 C 
BRANCH  10  11
ATOM     11  C   UNL     1     -22.701  47.124  -7.568  1.00  0.00     0.000 C 
BRANCH  11  12
ATOM     12  C   UNL     1     -21.679  46.264  -8.321  1.00  0.00     0.000 C 
BRANCH  12  13
ATOM     13  C   UNL     1     -20.273  46.874  -8.232  1.00  0.00     0.006 C 
BRANCH  13  14
ATOM     14  C   UNL     1     -19.428  46.228  -7.128  1.00  0.00     0.053 C 
BRANCH  14  15
ATOM     15  C   UNL     1     -19.129  44.792  -7.426  1.00  0.00     0.041 C 
ATOM     16  O   UNL     1     -18.280  44.163  -6.737  1.00  0.00    -0.550 OA
ATOM     17  O   UNL     1     -19.761  44.156  -8.488  1.00  0.00    -0.550 OA
ENDBRANCH  14  15
ENDBRANCH  13  14
ENDBRANCH  12  13
ENDBRANCH  11  12
ENDBRANCH  10  11
ENDBRANCH   9  10
ENDBRANCH   8   9
ENDBRANCH   7   8
ENDBRANCH   6   7
ENDBRANCH   5   6
ENDBRANCH   4   5
ENDBRANCH   3   4
ENDBRANCH   2   3
ENDBRANCH   1   2
BRANCH   1  18
ATOM     18  C   UNL     1     -21.858  40.094  -7.720  1.00  0.00     0.000 C 
BRANCH  18  19
ATOM     19  C   UNL     1     -21.132  39.771  -9.036  1.00  0.00     0.000 C 
BRANCH  19  20
ATOM     20  C   UNL     1     -19.621  39.573  -8.833  1.00  0.00     0.000 C 
BRANCH  20  21
ATOM     21  C   UNL     1     -18.851  40.901  -8.717  1.00  0.00     0.000 C 
BRANCH  21  22
ATOM     22  C   UNL     1     -18.141  41.128  -7.366  1.00  0.00     0.000 C 
BRANCH  22  23
ATOM     23  C   UNL     1     -17.513  39.869  -6.740  1.00  0.00     0.000 C 
BRANCH  23  24
ATOM     24  C   UNL     1     -16.245  40.118  -5.898  1.00  0.00    -0.000 C 
BRANCH  24  25
ATOM     25  C   UNL     1     -16.291  39.562  -4.463  1.00  0.00    -0.000 C 
BRANCH  25  26
ATOM     26  C   UNL     1     -16.433  40.661  -3.397  1.00  0.00    -0.000 C 
BRANCH  26  27
ATOM     27  C   UNL     1     -15.986  42.043  -3.904  1.00  0.00    -0.000 C 
BRANCH  27  28
ATOM     28  C   UNL     1     -17.132  43.074  -3.976  1.00  0.00    -0.000 C 
BRANCH  28  29
ATOM     29  C   UNL     1     -18.478  42.478  -3.535  1.00  0.00    -0.000 C 
BRANCH  29  30
ATOM     30  C   UNL     1     -19.608  42.922  -4.476  1.00  0.00    -0.000 C 
BRANCH  30  31
ATOM     31  C   UNL     1     -20.346  41.737  -5.113  1.00  0.00    -0.003 C 
ATOM     32  C   UNL     1     -19.955  40.394  -4.495  1.00  0.00     0.004 C 
ENDBRANCH  30  31
ENDBRANCH  29  30
ENDBRANCH  28  29
ENDBRANCH  27  28
ENDBRANCH  26  27
ENDBRANCH  25  26
ENDBRANCH  24  25
ENDBRANCH  23  24
ENDBRANCH  22  23
ENDBRANCH  21  22
ENDBRANCH  20  21
ENDBRANCH  19  20
ENDBRANCH  18  19
ENDBRANCH   1  18
TORSDOF 28
ENDMDL
MODEL 7
REMARK VINA RESULT:    -3.489      4.001     12.470
REMARK INTER + INTRA:         -11.412
REMARK INTER:                  -8.846
REMARK INTRA:                  -2.566
REMARK UNBOUND:                -2.212
REMARK SMILES CCCCCCCCCCCCCCCCCCCCCCCCCCCCCC(=O)[O-]
REMARK SMILES IDX 16 1 17 2 18 3 19 4 20 5 21 6 22 7 23 8 24 9 25 10 26 11
REMARK SMILES IDX 27 12 28 13 29 14 30 15 31 16 32 17 15 18 14 19 13 20 12 21
REMARK SMILES IDX 11 22 10 23 9 24 8 25 7 26 6 27 5 28 4 29 3 30 2 31 1 32
REMARK H PARENT
REMARK Flexibility Score: inf
ROOT
ATOM      1  C   UNL     1     -18.609  43.002  -2.396  1.00  0.00     0.000 C 
ENDROOT
BRANCH   1   2
ATOM      2  C   UNL     1     -17.822  43.391  -1.128  1.00  0.00     0.000 C 
BRANCH   2   3
ATOM      3  C   UNL     1     -18.685  44.062  -0.044  1.00  0.00     0.000 C 
BRANCH   3   4
ATOM      4  C   UNL     1     -18.417  43.506   1.363  1.00  0.00     0.000 C 
BRANCH   4   5
ATOM      5  C   UNL     1     -19.559  43.803   2.351  1.00  0.00     0.000 C 
BRANCH   5   6
ATOM      6  C   UNL     1     -19.166  43.728   3.838  1.00  0.00     0.000 C 
BRANCH   6   7
ATOM      7  C   UNL     1     -19.040  42.283   4.349  1.00  0.00     0.000 C 
BRANCH   7   8
ATOM      8  C   UNL     1     -20.297  41.435   4.073  1.00  0.00     0.000 C 
BRANCH   8   9
ATOM      9  C   UNL     1     -20.842  40.650   5.283  1.00  0.00     0.000 C 
BRANCH   9  10
ATOM     10  C   UNL     1     -22.277  40.118   5.126  1.00  0.00     0.000 C 
BRANCH  10  11
ATOM     11  C   UNL     1     -22.455  38.702   5.694  1.00  0.00     0.000 C 
BRANCH  11  12
ATOM     12  C   UNL     1     -22.680  38.743   7.210  1.00  0.00     0.000 C 
BRANCH  12  13
ATOM     13  C   UNL     1     -23.562  37.574   7.668  1.00  0.00     0.006 C 
BRANCH  13  14
ATOM     14  C   UNL     1     -23.135  36.242   7.040  1.00  0.00     0.053 C 
BRANCH  14  15
ATOM     15  C   UNL     1     -21.821  35.770   7.580  1.00  0.00     0.041 C 
ATOM     16  O   UNL     1     -21.678  35.565   8.816  1.00  0.00    -0.550 OA
ATOM     17  O   UNL     1     -20.740  35.592   6.724  1.00  0.00    -0.550 OA
ENDBRANCH  14  15
ENDBRANCH  13  14
ENDBRANCH  12  13
ENDBRANCH  11  12
ENDBRANCH  10  11
ENDBRANCH   9  10
ENDBRANCH   8   9
ENDBRANCH   7   8
ENDBRANCH   6   7
ENDBRANCH   5   6
ENDBRANCH   4   5
ENDBRANCH   3   4
ENDBRANCH   2   3
ENDBRANCH   1   2
BRANCH   1  18
ATOM     18  C   UNL     1     -17.699  42.852  -3.629  1.00  0.00     0.000 C 
BRANCH  18  19
ATOM     19  C   UNL     1     -16.380  42.136  -3.298  1.00  0.00     0.000 C 
BRANCH  19  20
ATOM     20  C   UNL     1     -15.983  41.117  -4.379  1.00  0.00     0.000 C 
BRANCH  20  21
ATOM     21  C   UNL     1     -17.092  40.091  -4.674  1.00  0.00     0.000 C 
BRANCH  21  22
ATOM     22  C   UNL     1     -17.442  39.918  -6.166  1.00  0.00     0.000 C 
BRANCH  22  23
ATOM     23  C   UNL     1     -18.018  41.173  -6.850  1.00  0.00     0.000 C 
BRANCH  23  24
ATOM     24  C   UNL     1     -18.533  40.958  -8.288  1.00  0.00    -0.000 C 
BRANCH  24  25
ATOM     25  C   UNL     1     -20.057  41.081  -8.463  1.00  0.00    -0.000 C 
BRANCH  25  26
ATOM     26  C   UNL     1     -20.831  39.916  -7.825  1.00  0.00    -0.000 C 
BRANCH  26  27
ATOM     27  C   UNL     1     -21.968  40.392  -6.904  1.00  0.00    -0.000 C 
BRANCH  27  28
ATOM     28  C   UNL     1     -21.549  41.523  -5.940  1.00  0.00    -0.000 C 
BRANCH  28  29
ATOM     29  C   UNL     1     -22.448  42.762  -6.073  1.00  0.00    -0.000 C 
BRANCH  29  30
ATOM     30  C   UNL     1     -21.652  43.961  -6.609  1.00  0.00    -0.000 C 
BRANCH  30  31
ATOM     31  C   UNL     1     -20.168  43.906  -6.220  1.00  0.00    -0.003 C 
ATOM     32  C   UNL     1     -19.319  44.927  -6.979  1.00  0.00     0.004 C 
ENDBRANCH  30  31
ENDBRANCH  29  30
ENDBRANCH  28  29
ENDBRANCH  27  28
ENDBRANCH  26  27
ENDBRANCH  25  26
ENDBRANCH  24  25
ENDBRANCH  23  24
ENDBRANCH  22  23
ENDBRANCH  21  22
ENDBRANCH  20  21
ENDBRANCH  19  20
ENDBRANCH  18  19
ENDBRANCH   1  18
TORSDOF 28
ENDMDL
MODEL 8
REMARK VINA RESULT:    -3.451      3.760     12.628
REMARK INTER + INTRA:         -11.312
REMARK INTER:                  -9.121
REMARK INTRA:                  -2.191
REMARK UNBOUND:                -2.212
REMARK SMILES CCCCCCCCCCCCCCCCCCCCCCCCCCCCCC(=O)[O-]
REMARK SMILES IDX 16 1 17 2 18 3 19 4 20 5 21 6 22 7 23 8 24 9 25 10 26 11
REMARK SMILES IDX 27 12 28 13 29 14 30 15 31 16 32 17 15 18 14 19 13 20 12 21
REMARK SMILES IDX 11 22 10 23 9 24 8 25 7 26 6 27 5 28 4 29 3 30 2 31 1 32
REMARK H PARENT
REMARK Flexibility Score: inf
ROOT
ATOM      1  C   UNL     1     -18.648  43.369   1.430  1.00  0.00     0.000 C 
ENDROOT
BRANCH   1   2
ATOM      2  C   UNL     1     -19.593  43.866   2.544  1.00  0.00     0.000 C 
BRANCH   2   3
ATOM      3  C   UNL     1     -19.029  43.682   3.964  1.00  0.00     0.000 C 
BRANCH   3   4
ATOM      4  C   UNL     1     -18.855  42.205   4.353  1.00  0.00     0.000 C 
BRANCH   4   5
ATOM      5  C   UNL     1     -20.170  41.409   4.282  1.00  0.00     0.000 C 
BRANCH   5   6
ATOM      6  C   UNL     1     -20.203  40.132   5.142  1.00  0.00     0.000 C 
BRANCH   6   7
ATOM      7  C   UNL     1     -21.179  39.075   4.600  1.00  0.00     0.000 C 
BRANCH   7   8
ATOM      8  C   UNL     1     -22.417  38.883   5.496  1.00  0.00     0.000 C 
BRANCH   8   9
ATOM      9  C   UNL     1     -22.219  39.244   6.982  1.00  0.00     0.000 C 
BRANCH   9  10
ATOM     10  C   UNL     1     -23.062  38.423   7.973  1.00  0.00     0.000 C 
BRANCH  10  11
ATOM     11  C   UNL     1     -23.446  37.039   7.427  1.00  0.00     0.000 C 
BRANCH  11  12
ATOM     12  C   UNL     1     -22.652  35.932   8.130  1.00  0.00     0.000 C 
BRANCH  12  13
ATOM     13  C   UNL     1     -21.443  36.511   8.878  1.00  0.00     0.006 C 
BRANCH  13  14
ATOM     14  C   UNL     1     -20.117  35.915   8.389  1.00  0.00     0.053 C 
BRANCH  14  15
ATOM     15  C   UNL     1     -19.859  36.242   6.951  1.00  0.00     0.041 C 
ATOM     16  O   UNL     1     -19.040  37.150   6.643  1.00  0.00    -0.550 OA
ATOM     17  O   UNL     1     -20.550  35.570   5.949  1.00  0.00    -0.550 OA
ENDBRANCH  14  15
ENDBRANCH  13  14
ENDBRANCH  12  13
ENDBRANCH  11  12
ENDBRANCH  10  11
ENDBRANCH   9  10
ENDBRANCH   8   9
ENDBRANCH   7   8
ENDBRANCH   6   7
ENDBRANCH   5   6
ENDBRANCH   4   5
ENDBRANCH   3   4
ENDBRANCH   2   3
ENDBRANCH   1   2
BRANCH   1  18
ATOM     18  C   UNL     1     -18.670  44.282   0.191  1.00  0.00     0.000 C 
BRANCH  18  19
ATOM     19  C   UNL     1     -17.807  43.733  -0.956  1.00  0.00     0.000 C 
BRANCH  19  20
ATOM     20  C   UNL     1     -18.646  43.003  -2.018  1.00  0.00     0.000 C 
BRANCH  20  21
ATOM     21  C   UNL     1     -17.891  42.798  -3.344  1.00  0.00     0.000 C 
BRANCH  21  22
ATOM     22  C   UNL     1     -16.417  42.368  -3.197  1.00  0.00     0.000 C 
BRANCH  22  23
ATOM     23  C   UNL     1     -15.982  41.210  -4.114  1.00  0.00     0.000 C 
BRANCH  23  24
ATOM     24  C   UNL     1     -17.107  40.235  -4.518  1.00  0.00    -0.000 C 
BRANCH  24  25
ATOM     25  C   UNL     1     -17.329  40.080  -6.033  1.00  0.00    -0.000 C 
BRANCH  25  26
ATOM     26  C   UNL     1     -17.948  41.329  -6.680  1.00  0.00    -0.000 C 
BRANCH  26  27
ATOM     27  C   UNL     1     -18.960  40.986  -7.787  1.00  0.00    -0.000 C 
BRANCH  27  28
ATOM     28  C   UNL     1     -20.420  41.317  -7.412  1.00  0.00    -0.000 C 
BRANCH  28  29
ATOM     29  C   UNL     1     -20.591  41.561  -5.904  1.00  0.00    -0.000 C 
BRANCH  29  30
ATOM     30  C   UNL     1     -21.608  42.682  -5.642  1.00  0.00    -0.000 C 
BRANCH  30  31
ATOM     31  C   UNL     1     -21.902  43.518  -6.895  1.00  0.00    -0.003 C 
ATOM     32  C   UNL     1     -21.682  45.014  -6.674  1.00  0.00     0.004 C 
ENDBRANCH  30  31
ENDBRANCH  29  30
ENDBRANCH  28  29
ENDBRANCH  27  28
ENDBRANCH  26  27
ENDBRANCH  25  26
ENDBRANCH  24  25
ENDBRANCH  23  24
ENDBRANCH  22  23
ENDBRANCH  21  22
ENDBRANCH  20  21
ENDBRANCH  19  20
ENDBRANCH  18  19
ENDBRANCH   1  18
TORSDOF 28
ENDMDL
MODEL 9
REMARK VINA RESULT:    -3.393      1.260      2.458
REMARK INTER + INTRA:         -11.159
REMARK INTER:                  -8.828
REMARK INTRA:                  -2.331
REMARK UNBOUND:                -2.212
REMARK SMILES CCCCCCCCCCCCCCCCCCCCCCCCCCCCCC(=O)[O-]
REMARK SMILES IDX 16 1 17 2 18 3 19 4 20 5 21 6 22 7 23 8 24 9 25 10 26 11
REMARK SMILES IDX 27 12 28 13 29 14 30 15 31 16 32 17 15 18 14 19 13 20 12 21
REMARK SMILES IDX 11 22 10 23 9 24 8 25 7 26 6 27 5 28 4 29 3 30 2 31 1 32
REMARK H PARENT
REMARK Flexibility Score: inf
ROOT
ATOM      1  C   UNL     1     -19.037  43.378   1.580  1.00  0.00     0.000 C 
ENDROOT
BRANCH   1   2
ATOM      2  C   UNL     1     -18.703  44.170   0.298  1.00  0.00     0.000 C 
BRANCH   2   3
ATOM      3  C   UNL     1     -17.916  43.356  -0.745  1.00  0.00     0.000 C 
BRANCH   3   4
ATOM      4  C   UNL     1     -18.451  43.538  -2.174  1.00  0.00     0.000 C 
BRANCH   4   5
ATOM      5  C   UNL     1     -17.894  42.496  -3.159  1.00  0.00     0.000 C 
BRANCH   5   6
ATOM      6  C   UNL     1     -16.365  42.324  -3.126  1.00  0.00     0.000 C 
BRANCH   6   7
ATOM      7  C   UNL     1     -15.859  41.299  -4.156  1.00  0.00     0.000 C 
BRANCH   7   8
ATOM      8  C   UNL     1     -16.656  39.981  -4.135  1.00  0.00     0.000 C 
BRANCH   8   9
ATOM      9  C   UNL     1     -17.829  39.903  -5.133  1.00  0.00     0.000 C 
BRANCH   9  10
ATOM     10  C   UNL     1     -17.425  39.826  -6.615  1.00  0.00     0.000 C 
BRANCH  10  11
ATOM     11  C   UNL     1     -18.167  40.848  -7.490  1.00  0.00     0.000 C 
BRANCH  11  12
ATOM     12  C   UNL     1     -18.197  42.226  -6.818  1.00  0.00     0.000 C 
BRANCH  12  13
ATOM     13  C   UNL     1     -19.028  43.222  -7.639  1.00  0.00     0.006 C 
BRANCH  13  14
ATOM     14  C   UNL     1     -20.295  42.581  -8.220  1.00  0.00     0.053 C 
BRANCH  14  15
ATOM     15  C   UNL     1     -21.524  43.021  -7.488  1.00  0.00     0.041 C 
ATOM     16  O   UNL     1     -22.659  42.900  -8.023  1.00  0.00    -0.550 OA
ATOM     17  O   UNL     1     -21.415  43.599  -6.229  1.00  0.00    -0.550 OA
ENDBRANCH  14  15
ENDBRANCH  13  14
ENDBRANCH  12  13
ENDBRANCH  11  12
ENDBRANCH  10  11
ENDBRANCH   9  10
ENDBRANCH   8   9
ENDBRANCH   7   8
ENDBRANCH   6   7
ENDBRANCH   5   6
ENDBRANCH   4   5
ENDBRANCH   3   4
ENDBRANCH   2   3
ENDBRANCH   1   2
BRANCH   1  18
ATOM     18  C   UNL     1     -19.424  44.297   2.753  1.00  0.00     0.000 C 
BRANCH  18  19
ATOM     19  C   UNL     1     -19.047  43.695   4.116  1.00  0.00     0.000 C 
BRANCH  19  20
ATOM     20  C   UNL     1     -19.055  42.158   4.097  1.00  0.00     0.000 C 
BRANCH  20  21
ATOM     21  C   UNL     1     -20.234  41.553   4.881  1.00  0.00     0.000 C 
BRANCH  21  22
ATOM     22  C   UNL     1     -21.287  40.825   4.020  1.00  0.00     0.000 C 
BRANCH  22  23
ATOM     23  C   UNL     1     -22.486  40.256   4.802  1.00  0.00     0.000 C 
BRANCH  23  24
ATOM     24  C   UNL     1     -22.147  39.110   5.777  1.00  0.00    -0.000 C 
BRANCH  24  25
ATOM     25  C   UNL     1     -21.219  38.020   5.212  1.00  0.00    -0.000 C 
BRANCH  25  26
ATOM     26  C   UNL     1     -19.947  37.819   6.051  1.00  0.00    -0.000 C 
BRANCH  26  27
ATOM     27  C   UNL     1     -19.781  36.371   6.542  1.00  0.00    -0.000 C 
BRANCH  27  28
ATOM     28  C   UNL     1     -21.044  35.505   6.349  1.00  0.00    -0.000 C 
BRANCH  28  29
ATOM     29  C   UNL     1     -21.927  35.477   7.606  1.00  0.00    -0.000 C 
BRANCH  29  30
ATOM     30  C   UNL     1     -21.107  35.818   8.859  1.00  0.00    -0.000 C 
BRANCH  30  31
ATOM     31  C   UNL     1     -21.790  36.869   9.745  1.00  0.00    -0.003 C 
ATOM     32  C   UNL     1     -23.073  37.422   9.125  1.00  0.00     0.004 C 
ENDBRANCH  30  31
ENDBRANCH  29  30
ENDBRANCH  28  29
ENDBRANCH  27  28
ENDBRANCH  26  27
ENDBRANCH  25  26
ENDBRANCH  24  25
ENDBRANCH  23  24
ENDBRANCH  22  23
ENDBRANCH  21  22
ENDBRANCH  20  21
ENDBRANCH  19  20
ENDBRANCH  18  19
ENDBRANCH   1  18
TORSDOF 28
ENDMDL
