MODEL 1
REMARK VINA RESULT:    -6.071      0.000      0.000
REMARK INTER + INTRA:          -6.248
REMARK INTER:                  -6.248
REMARK INTRA:                   0.000
REMARK UNBOUND:                 0.000
REMARK SMILES O=c1ccc2ccc(O)cc2o1
REMARK SMILES IDX 6 1 7 2 8 3 10 4 11 5 5 6 4 7 3 8 2 9 1 10 12 11 9 12
REMARK H PARENT 9 13
REMARK Flexibility Score: inf
ROOT
ATOM      1  C   UNL     1       1.861  46.875  20.386  1.00  0.00     0.016 A 
ATOM      2  C   UNL     1       0.493  47.129  20.527  1.00  0.00     0.047 A 
ATOM      3  C   UNL     1       0.010  47.799  21.657  1.00  0.00     0.119 A 
ATOM      4  C   UNL     1       0.902  48.219  22.655  1.00  0.00     0.094 A 
ATOM      5  C   UNL     1       2.273  47.969  22.522  1.00  0.00     0.142 A 
ATOM      6  C   UNL     1       2.755  47.293  21.380  1.00  0.00     0.018 A 
ATOM      7  C   UNL     1       4.129  47.057  21.275  1.00  0.00     0.019 A 
ATOM      8  C   UNL     1       4.978  47.494  22.293  1.00  0.00     0.094 A 
ATOM      9  C   UNL     1       4.429  48.157  23.396  1.00  0.00     0.336 A 
ATOM     10  O   UNL     1       5.178  48.558  24.324  1.00  0.00    -0.246 OA
ATOM     11  O   UNL     1       3.117  48.368  23.471  1.00  0.00    -0.423 OA
ENDROOT
BRANCH   3  12
ATOM     12  O   UNL     1      -1.356  48.043  21.780  1.00  0.00    -0.508 OA
ATOM     13  H   UNL     1      -1.721  48.667  22.489  1.00  0.00     0.293 HD
ENDBRANCH   3  12
TORSDOF 1
ENDMDL
MODEL 2
REMARK VINA RESULT:    -5.898      1.763      2.735
REMARK INTER + INTRA:          -6.070
REMARK INTER:                  -6.070
REMARK INTRA:                   0.000
REMARK UNBOUND:                 0.000
REMARK SMILES O=c1ccc2ccc(O)cc2o1
REMARK SMILES IDX 6 1 7 2 8 3 10 4 11 5 5 6 4 7 3 8 2 9 1 10 12 11 9 12
REMARK H PARENT 9 13
REMARK Flexibility Score: inf
ROOT
ATOM      1  C   UNL     1       1.293  47.165  24.638  1.00  0.00     0.016 A 
ATOM      2  C   UNL     1       0.594  47.152  23.427  1.00  0.00     0.047 A 
ATOM      3  C   UNL     1       1.234  47.518  22.237  1.00  0.00     0.119 A 
ATOM      4  C   UNL     1       2.584  47.899  22.257  1.00  0.00     0.094 A 
ATOM      5  C   UNL     1       3.291  47.914  23.464  1.00  0.00     0.142 A 
ATOM      6  C   UNL     1       2.642  47.545  24.662  1.00  0.00     0.018 A 
ATOM      7  C   UNL     1       3.375  47.570  25.853  1.00  0.00     0.019 A 
ATOM      8  C   UNL     1       4.715  47.955  25.824  1.00  0.00     0.094 A 
ATOM      9  C   UNL     1       5.292  48.310  24.599  1.00  0.00     0.336 A 
ATOM     10  O   UNL     1       6.500  48.661  24.552  1.00  0.00    -0.246 OA
ATOM     11  O   UNL     1       4.572  48.277  23.480  1.00  0.00    -0.423 OA
ENDROOT
BRANCH   3  12
ATOM     12  O   UNL     1       0.520  47.499  21.040  1.00  0.00    -0.508 OA
ATOM     13  H   UNL     1       0.603  46.729  20.387  1.00  0.00     0.293 HD
ENDBRANCH   3  12
TORSDOF 1
ENDMDL
MODEL 3
REMARK VINA RESULT:    -5.886      1.411      2.229
REMARK INTER + INTRA:          -6.058
REMARK INTER:                  -6.058
REMARK INTRA:                   0.000
REMARK UNBOUND:                 0.000
REMARK SMILES O=c1ccc2ccc(O)cc2o1
REMARK SMILES IDX 6 1 7 2 8 3 10 4 11 5 5 6 4 7 3 8 2 9 1 10 12 11 9 12
REMARK H PARENT 9 13
REMARK Flexibility Score: inf
ROOT
ATOM      1  C   UNL     1       3.910  47.163  21.500  1.00  0.00     0.016 A 
ATOM      2  C   UNL     1       2.516  47.187  21.607  1.00  0.00     0.047 A 
ATOM      3  C   UNL     1       1.902  47.759  22.729  1.00  0.00     0.119 A 
ATOM      4  C   UNL     1       2.689  48.311  23.751  1.00  0.00     0.094 A 
ATOM      5  C   UNL     1       4.085  48.290  23.651  1.00  0.00     0.142 A 
ATOM      6  C   UNL     1       4.699  47.712  22.519  1.00  0.00     0.018 A 
ATOM      7  C   UNL     1       6.096  47.706  22.447  1.00  0.00     0.019 A 
ATOM      8  C   UNL     1       6.837  48.267  23.487  1.00  0.00     0.094 A 
ATOM      9  C   UNL     1       6.160  48.822  24.580  1.00  0.00     0.336 A 
ATOM     10  O   UNL     1       6.810  49.331  25.529  1.00  0.00    -0.246 OA
ATOM     11  O   UNL     1       4.829  48.814  24.623  1.00  0.00    -0.423 OA
ENDROOT
BRANCH   3  12
ATOM     12  O   UNL     1       0.512  47.775  22.818  1.00  0.00    -0.508 OA
ATOM     13  H   UNL     1      -0.070  47.418  22.069  1.00  0.00     0.293 HD
ENDBRANCH   3  12
TORSDOF 1
ENDMDL
MODEL 4
REMARK VINA RESULT:    -5.845     11.043     11.742
REMARK INTER + INTRA:          -6.016
REMARK INTER:                  -6.016
REMARK INTRA:                   0.000
REMARK UNBOUND:                 0.000
REMARK SMILES O=c1ccc2ccc(O)cc2o1
REMARK SMILES IDX 6 1 7 2 8 3 10 4 11 5 5 6 4 7 3 8 2 9 1 10 12 11 9 12
REMARK H PARENT 9 13
REMARK Flexibility Score: inf
ROOT
ATOM      1  C   UNL     1       3.166  58.145  22.655  1.00  0.00     0.016 A 
ATOM      2  C   UNL     1       2.695  56.829  22.607  1.00  0.00     0.047 A 
ATOM      3  C   UNL     1       1.390  56.530  23.017  1.00  0.00     0.119 A 
ATOM      4  C   UNL     1       0.550  57.553  23.480  1.00  0.00     0.094 A 
ATOM      5  C   UNL     1       1.013  58.873  23.531  1.00  0.00     0.142 A 
ATOM      6  C   UNL     1       2.330  59.171  23.117  1.00  0.00     0.018 A 
ATOM      7  C   UNL     1       2.765  60.498  23.180  1.00  0.00     0.019 A 
ATOM      8  C   UNL     1       1.894  61.482  23.646  1.00  0.00     0.094 A 
ATOM      9  C   UNL     1       0.603  61.113  24.041  1.00  0.00     0.336 A 
ATOM     10  O   UNL     1      -0.198  61.987  24.466  1.00  0.00    -0.246 OA
ATOM     11  O   UNL     1       0.214  59.842  23.971  1.00  0.00    -0.423 OA
ENDROOT
BRANCH   3  12
ATOM     12  O   UNL     1       0.938  55.213  22.962  1.00  0.00    -0.508 OA
ATOM     13  H   UNL     1       0.555  54.821  22.110  1.00  0.00     0.293 HD
ENDBRANCH   3  12
TORSDOF 1
ENDMDL
MODEL 5
REMARK VINA RESULT:    -5.831     10.839     11.604
REMARK INTER + INTRA:          -6.002
REMARK INTER:                  -6.002
REMARK INTRA:                   0.000
REMARK UNBOUND:                 0.000
REMARK SMILES O=c1ccc2ccc(O)cc2o1
REMARK SMILES IDX 6 1 7 2 8 3 10 4 11 5 5 6 4 7 3 8 2 9 1 10 12 11 9 12
REMARK H PARENT 9 13
REMARK Flexibility Score: inf
ROOT
ATOM      1  C   UNL     1       0.345  57.569  23.522  1.00  0.00     0.016 A 
ATOM      2  C   UNL     1       0.903  56.443  22.908  1.00  0.00     0.047 A 
ATOM      3  C   UNL     1       2.143  56.530  22.263  1.00  0.00     0.119 A 
ATOM      4  C   UNL     1       2.831  57.752  22.231  1.00  0.00     0.094 A 
ATOM      5  C   UNL     1       2.280  58.884  22.844  1.00  0.00     0.142 A 
ATOM      6  C   UNL     1       1.029  58.792  23.493  1.00  0.00     0.018 A 
ATOM      7  C   UNL     1       0.504  59.939  24.095  1.00  0.00     0.019 A 
ATOM      8  C   UNL     1       1.225  61.132  24.039  1.00  0.00     0.094 A 
ATOM      9  C   UNL     1       2.458  61.149  23.377  1.00  0.00     0.336 A 
ATOM     10  O   UNL     1       3.122  62.216  23.315  1.00  0.00    -0.246 OA
ATOM     11  O   UNL     1       2.935  60.042  22.812  1.00  0.00    -0.423 OA
ENDROOT
BRANCH   3  12
ATOM     12  O   UNL     1       2.682  55.397  21.656  1.00  0.00    -0.508 OA
ATOM     13  H   UNL     1       3.548  54.984  21.983  1.00  0.00     0.293 HD
ENDBRANCH   3  12
TORSDOF 1
ENDMDL
MODEL 6
REMARK VINA RESULT:    -5.801      1.789      4.974
REMARK INTER + INTRA:          -5.971
REMARK INTER:                  -5.971
REMARK INTRA:                   0.000
REMARK UNBOUND:                 0.000
REMARK SMILES O=c1ccc2ccc(O)cc2o1
REMARK SMILES IDX 6 1 7 2 8 3 10 4 11 5 5 6 4 7 3 8 2 9 1 10 12 11 9 12
REMARK H PARENT 9 13
REMARK Flexibility Score: inf
ROOT
ATOM      1  C   UNL     1       3.130  47.620  25.828  1.00  0.00     0.016 A 
ATOM      2  C   UNL     1       4.470  48.020  25.859  1.00  0.00     0.047 A 
ATOM      3  C   UNL     1       5.132  48.369  24.676  1.00  0.00     0.119 A 
ATOM      4  C   UNL     1       4.450  48.317  23.451  1.00  0.00     0.094 A 
ATOM      5  C   UNL     1       3.109  47.918  23.411  1.00  0.00     0.142 A 
ATOM      6  C   UNL     1       2.445  47.567  24.606  1.00  0.00     0.018 A 
ATOM      7  C   UNL     1       1.106  47.172  24.534  1.00  0.00     0.019 A 
ATOM      8  C   UNL     1       0.469  47.136  23.294  1.00  0.00     0.094 A 
ATOM      9  C   UNL     1       1.191  47.497  22.150  1.00  0.00     0.336 A 
ATOM     10  O   UNL     1       0.634  47.470  21.022  1.00  0.00    -0.246 OA
ATOM     11  O   UNL     1       2.465  47.869  22.247  1.00  0.00    -0.423 OA
ENDROOT
BRANCH   3  12
ATOM     12  O   UNL     1       6.467  48.765  24.728  1.00  0.00    -0.508 OA
ATOM     13  H   UNL     1       6.923  49.193  23.931  1.00  0.00     0.293 HD
ENDBRANCH   3  12
TORSDOF 1
ENDMDL
MODEL 7
REMARK VINA RESULT:    -5.795      3.392      6.661
REMARK INTER + INTRA:          -5.965
REMARK INTER:                  -5.965
REMARK INTRA:                   0.000
REMARK UNBOUND:                 0.000
REMARK SMILES O=c1ccc2ccc(O)cc2o1
REMARK SMILES IDX 6 1 7 2 8 3 10 4 11 5 5 6 4 7 3 8 2 9 1 10 12 11 9 12
REMARK H PARENT 9 13
REMARK Flexibility Score: inf
ROOT
ATOM      1  C   UNL     1       6.825  48.358  26.993  1.00  0.00     0.016 A 
ATOM      2  C   UNL     1       7.981  49.090  26.707  1.00  0.00     0.047 A 
ATOM      3  C   UNL     1       8.287  49.443  25.386  1.00  0.00     0.119 A 
ATOM      4  C   UNL     1       7.429  49.061  24.344  1.00  0.00     0.094 A 
ATOM      5  C   UNL     1       6.269  48.328  24.622  1.00  0.00     0.142 A 
ATOM      6  C   UNL     1       5.965  47.974  25.955  1.00  0.00     0.018 A 
ATOM      7  C   UNL     1       4.800  47.242  26.201  1.00  0.00     0.019 A 
ATOM      8  C   UNL     1       3.977  46.885  25.133  1.00  0.00     0.094 A 
ATOM      9  C   UNL     1       4.342  47.269  23.837  1.00  0.00     0.336 A 
ATOM     10  O   UNL     1       3.614  46.956  22.861  1.00  0.00    -0.246 OA
ATOM     11  O   UNL     1       5.458  47.966  23.631  1.00  0.00    -0.423 OA
ENDROOT
BRANCH   3  12
ATOM     12  O   UNL     1       9.444  50.173  25.121  1.00  0.00    -0.508 OA
ATOM     13  H   UNL     1       9.401  51.116  24.754  1.00  0.00     0.293 HD
ENDBRANCH   3  12
TORSDOF 1
ENDMDL
MODEL 8
REMARK VINA RESULT:    -5.778      1.644      4.890
REMARK INTER + INTRA:          -5.947
REMARK INTER:                  -5.947
REMARK INTRA:                   0.000
REMARK UNBOUND:                 0.000
REMARK SMILES O=c1ccc2ccc(O)cc2o1
REMARK SMILES IDX 6 1 7 2 8 3 10 4 11 5 5 6 4 7 3 8 2 9 1 10 12 11 9 12
REMARK H PARENT 9 13
REMARK Flexibility Score: inf
ROOT
ATOM      1  C   UNL     1       6.500  47.898  22.497  1.00  0.00     0.016 A 
ATOM      2  C   UNL     1       7.127  48.398  23.642  1.00  0.00     0.047 A 
ATOM      3  C   UNL     1       6.371  48.748  24.768  1.00  0.00     0.119 A 
ATOM      4  C   UNL     1       4.976  48.596  24.748  1.00  0.00     0.094 A 
ATOM      5  C   UNL     1       4.340  48.096  23.606  1.00  0.00     0.142 A 
ATOM      6  C   UNL     1       5.107  47.745  22.473  1.00  0.00     0.018 A 
ATOM      7  C   UNL     1       4.444  47.248  21.347  1.00  0.00     0.019 A 
ATOM      8  C   UNL     1       3.055  47.114  21.374  1.00  0.00     0.094 A 
ATOM      9  C   UNL     1       2.361  47.483  22.531  1.00  0.00     0.336 A 
ATOM     10  O   UNL     1       1.108  47.370  22.575  1.00  0.00    -0.246 OA
ATOM     11  O   UNL     1       3.017  47.953  23.590  1.00  0.00    -0.423 OA
ENDROOT
BRANCH   3  12
ATOM     12  O   UNL     1       7.014  49.244  25.899  1.00  0.00    -0.508 OA
ATOM     13  H   UNL     1       7.725  49.962  25.831  1.00  0.00     0.293 HD
ENDBRANCH   3  12
TORSDOF 1
ENDMDL
MODEL 9
REMARK VINA RESULT:    -5.625      0.801      4.229
REMARK INTER + INTRA:          -5.790
REMARK INTER:                  -5.790
REMARK INTRA:                   0.000
REMARK UNBOUND:                 0.000
REMARK SMILES O=c1ccc2ccc(O)cc2o1
REMARK SMILES IDX 6 1 7 2 8 3 10 4 11 5 5 6 4 7 3 8 2 9 1 10 12 11 9 12
REMARK H PARENT 9 13
REMARK Flexibility Score: inf
ROOT
ATOM      1  C   UNL     1       4.250  47.094  21.330  1.00  0.00     0.016 A 
ATOM      2  C   UNL     1       5.069  47.487  22.393  1.00  0.00     0.047 A 
ATOM      3  C   UNL     1       4.509  48.040  23.552  1.00  0.00     0.119 A 
ATOM      4  C   UNL     1       3.119  48.203  23.647  1.00  0.00     0.094 A 
ATOM      5  C   UNL     1       2.292  47.813  22.588  1.00  0.00     0.142 A 
ATOM      6  C   UNL     1       2.861  47.255  21.422  1.00  0.00     0.018 A 
ATOM      7  C   UNL     1       2.009  46.875  20.380  1.00  0.00     0.019 A 
ATOM      8  C   UNL     1       0.633  47.055  20.521  1.00  0.00     0.094 A 
ATOM      9  C   UNL     1       0.140  47.615  21.706  1.00  0.00     0.336 A 
ATOM     10  O   UNL     1      -1.098  47.787  21.851  1.00  0.00    -0.246 OA
ATOM     11  O   UNL     1       0.973  47.968  22.682  1.00  0.00    -0.423 OA
ENDROOT
BRANCH   3  12
ATOM     12  O   UNL     1       5.342  48.425  24.600  1.00  0.00    -0.508 OA
ATOM     13  H   UNL     1       4.992  48.518  25.547  1.00  0.00     0.293 HD
ENDBRANCH   3  12
TORSDOF 1
ENDMDL
