MODEL 1
REMARK VINA RESULT:    -3.467      0.000      0.000
REMARK INTER + INTRA:          -9.071
REMARK INTER:                  -6.709
REMARK INTRA:                  -2.362
REMARK UNBOUND:                -2.362
REMARK SMILES CCCCCCCCCCCCCCCCCC(=O)[O-]
REMARK SMILES IDX 10 1 11 2 12 3 13 4 14 5 15 6 16 7 17 8 18 9 19 10 20 11
REMARK SMILES IDX 9 12 8 13 7 14 6 15 5 16 4 17 3 18 2 19 1 20
REMARK H PARENT
REMARK Flexibility Score: inf
ROOT
ATOM      1  C   UNL     1     -99.410  70.132  22.662  1.00  0.00     0.000 C 
ENDROOT
BRANCH   1   2
ATOM      2  C   UNL     1     -99.407  68.837  23.493  1.00  0.00     0.000 C 
BRANCH   2   3
ATOM      3  C   UNL     1     -99.349  69.044  25.018  1.00  0.00     0.000 C 
BRANCH   3   4
ATOM      4  C   UNL     1    -100.457  69.970  25.565  1.00  0.00     0.000 C 
BRANCH   4   5
ATOM      5  C   UNL     1     -99.894  71.103  26.440  1.00  0.00     0.000 C 
BRANCH   5   6
ATOM      6  C   UNL     1     -98.419  70.884  26.817  1.00  0.00     0.000 C 
BRANCH   6   7
ATOM      7  C   UNL     1     -98.210  70.537  28.308  1.00  0.00     0.006 C 
BRANCH   7   8
ATOM      8  C   UNL     1     -98.340  69.034  28.604  1.00  0.00     0.053 C 
BRANCH   8   9
ATOM      9  C   UNL     1     -99.674  68.700  29.199  1.00  0.00     0.041 C 
ATOM     10  O   UNL     1     -99.900  68.926  30.416  1.00  0.00    -0.550 OA
ATOM     11  O   UNL     1    -100.661  68.116  28.414  1.00  0.00    -0.550 OA
ENDBRANCH   8   9
ENDBRANCH   7   8
ENDBRANCH   6   7
ENDBRANCH   5   6
ENDBRANCH   4   5
ENDBRANCH   3   4
ENDBRANCH   2   3
ENDBRANCH   1   2
BRANCH   1  12
ATOM     12  C   UNL     1     -98.087  70.907  22.760  1.00  0.00     0.000 C 
BRANCH  12  13
ATOM     13  C   UNL     1     -98.331  72.353  23.206  1.00  0.00    -0.000 C 
BRANCH  13  14
ATOM     14  C   UNL     1     -97.193  72.849  24.110  1.00  0.00    -0.000 C 
BRANCH  14  15
ATOM     15  C   UNL     1     -96.238  73.812  23.387  1.00  0.00    -0.000 C 
BRANCH  15  16
ATOM     16  C   UNL     1     -95.200  73.074  22.523  1.00  0.00    -0.000 C 
BRANCH  16  17
ATOM     17  C   UNL     1     -95.198  73.557  21.063  1.00  0.00    -0.000 C 
BRANCH  17  18
ATOM     18  C   UNL     1     -96.286  74.610  20.784  1.00  0.00    -0.000 C 
BRANCH  18  19
ATOM     19  C   UNL     1     -97.251  74.178  19.669  1.00  0.00    -0.003 C 
ATOM     20  C   UNL     1     -97.348  72.660  19.529  1.00  0.00     0.004 C 
ENDBRANCH  18  19
ENDBRANCH  17  18
ENDBRANCH  16  17
ENDBRANCH  15  16
ENDBRANCH  14  15
ENDBRANCH  13  14
ENDBRANCH  12  13
ENDBRANCH   1  12
TORSDOF 16
ENDMDL
MODEL 2
REMARK VINA RESULT:    -3.423      1.508      3.224
REMARK INTER + INTRA:          -8.986
REMARK INTER:                  -6.750
REMARK INTRA:                  -2.236
REMARK UNBOUND:                -2.362
REMARK SMILES CCCCCCCCCCCCCCCCCC(=O)[O-]
REMARK SMILES IDX 10 1 11 2 12 3 13 4 14 5 15 6 16 7 17 8 18 9 19 10 20 11
REMARK SMILES IDX 9 12 8 13 7 14 6 15 5 16 4 17 3 18 2 19 1 20
REMARK H PARENT
REMARK Flexibility Score: inf
ROOT
ATOM      1  C   UNL     1     -99.171  71.500  21.686  1.00  0.00     0.000 C 
ENDROOT
BRANCH   1   2
ATOM      2  C   UNL     1     -98.663  70.268  22.456  1.00  0.00     0.000 C 
BRANCH   2   3
ATOM      3  C   UNL     1     -99.748  69.490  23.225  1.00  0.00     0.000 C 
BRANCH   3   4
ATOM      4  C   UNL     1     -99.185  68.455  24.224  1.00  0.00     0.000 C 
BRANCH   4   5
ATOM      5  C   UNL     1     -99.050  69.027  25.645  1.00  0.00     0.000 C 
BRANCH   5   6
ATOM      6  C   UNL     1    -100.369  69.612  26.177  1.00  0.00     0.000 C 
BRANCH   6   7
ATOM      7  C   UNL     1    -101.063  68.711  27.224  1.00  0.00     0.006 C 
BRANCH   7   8
ATOM      8  C   UNL     1    -100.955  69.256  28.658  1.00  0.00     0.053 C 
BRANCH   8   9
ATOM      9  C   UNL     1     -99.637  68.914  29.282  1.00  0.00     0.041 C 
ATOM     10  O   UNL     1     -98.837  69.827  29.613  1.00  0.00    -0.550 OA
ATOM     11  O   UNL     1     -99.282  67.585  29.476  1.00  0.00    -0.550 OA
ENDBRANCH   8   9
ENDBRANCH   7   8
ENDBRANCH   6   7
ENDBRANCH   5   6
ENDBRANCH   4   5
ENDBRANCH   3   4
ENDBRANCH   2   3
ENDBRANCH   1   2
BRANCH   1  12
ATOM     12  C   UNL     1     -98.046  72.253  20.960  1.00  0.00     0.000 C 
BRANCH  12  13
ATOM     13  C   UNL     1     -96.680  71.633  21.274  1.00  0.00    -0.000 C 
BRANCH  13  14
ATOM     14  C   UNL     1     -95.684  72.705  21.741  1.00  0.00    -0.000 C 
BRANCH  14  15
ATOM     15  C   UNL     1     -95.677  72.882  23.269  1.00  0.00    -0.000 C 
BRANCH  15  16
ATOM     16  C   UNL     1     -96.174  74.273  23.703  1.00  0.00    -0.000 C 
BRANCH  16  17
ATOM     17  C   UNL     1     -97.155  74.205  24.885  1.00  0.00    -0.000 C 
BRANCH  17  18
ATOM     18  C   UNL     1     -97.899  72.860  24.963  1.00  0.00    -0.000 C 
BRANCH  18  19
ATOM     19  C   UNL     1     -99.426  73.032  24.963  1.00  0.00    -0.003 C 
ATOM     20  C   UNL     1     -99.994  73.265  26.362  1.00  0.00     0.004 C 
ENDBRANCH  18  19
ENDBRANCH  17  18
ENDBRANCH  16  17
ENDBRANCH  15  16
ENDBRANCH  14  15
ENDBRANCH  13  14
ENDBRANCH  12  13
ENDBRANCH   1  12
TORSDOF 16
ENDMDL
MODEL 3
REMARK VINA RESULT:    -3.422      1.190      3.658
REMARK INTER + INTRA:          -8.984
REMARK INTER:                  -6.608
REMARK INTRA:                  -2.376
REMARK UNBOUND:                -2.362
REMARK SMILES CCCCCCCCCCCCCCCCCC(=O)[O-]
REMARK SMILES IDX 10 1 11 2 12 3 13 4 14 5 15 6 16 7 17 8 18 9 19 10 20 11
REMARK SMILES IDX 9 12 8 13 7 14 6 15 5 16 4 17 3 18 2 19 1 20
REMARK H PARENT
REMARK Flexibility Score: inf
ROOT
ATOM      1  C   UNL     1     -95.877  73.976  23.895  1.00  0.00     0.000 C 
ENDROOT
BRANCH   1   2
ATOM      2  C   UNL     1     -97.413  73.917  23.963  1.00  0.00     0.000 C 
BRANCH   2   3
ATOM      3  C   UNL     1     -97.980  73.026  25.085  1.00  0.00     0.000 C 
BRANCH   3   4
ATOM      4  C   UNL     1     -99.522  72.953  25.104  1.00  0.00     0.000 C 
BRANCH   4   5
ATOM      5  C   UNL     1    -100.039  71.693  25.820  1.00  0.00     0.000 C 
BRANCH   5   6
ATOM      6  C   UNL     1     -98.906  70.735  26.226  1.00  0.00     0.000 C 
BRANCH   6   7
ATOM      7  C   UNL     1     -99.398  69.497  27.010  1.00  0.00     0.006 C 
BRANCH   7   8
ATOM      8  C   UNL     1     -98.515  69.158  28.222  1.00  0.00     0.053 C 
BRANCH   8   9
ATOM      9  C   UNL     1     -99.295  68.472  29.301  1.00  0.00     0.041 C 
ATOM     10  O   UNL     1    -100.435  68.894  29.625  1.00  0.00    -0.550 OA
ATOM     11  O   UNL     1     -98.751  67.380  29.967  1.00  0.00    -0.550 OA
ENDBRANCH   8   9
ENDBRANCH   7   8
ENDBRANCH   6   7
ENDBRANCH   5   6
ENDBRANCH   4   5
ENDBRANCH   3   4
ENDBRANCH   2   3
ENDBRANCH   1   2
BRANCH   1  12
ATOM     12  C   UNL     1     -95.306  73.236  22.676  1.00  0.00     0.000 C 
BRANCH  12  13
ATOM     13  C   UNL     1     -95.415  74.097  21.412  1.00  0.00    -0.000 C 
BRANCH  13  14
ATOM     14  C   UNL     1     -95.560  73.219  20.160  1.00  0.00    -0.000 C 
BRANCH  14  15
ATOM     15  C   UNL     1     -96.495  72.019  20.383  1.00  0.00    -0.000 C 
BRANCH  15  16
ATOM     16  C   UNL     1     -97.980  72.390  20.217  1.00  0.00    -0.000 C 
BRANCH  16  17
ATOM     17  C   UNL     1     -98.858  71.831  21.348  1.00  0.00    -0.000 C 
BRANCH  17  18
ATOM     18  C   UNL     1     -98.137  70.758  22.185  1.00  0.00    -0.000 C 
BRANCH  18  19
ATOM     19  C   UNL     1     -99.110  69.745  22.806  1.00  0.00    -0.003 C 
ATOM     20  C   UNL     1    -100.571  70.052  22.477  1.00  0.00     0.004 C 
ENDBRANCH  18  19
ENDBRANCH  17  18
ENDBRANCH  16  17
ENDBRANCH  15  16
ENDBRANCH  14  15
ENDBRANCH  13  14
ENDBRANCH  12  13
ENDBRANCH   1  12
TORSDOF 16
ENDMDL
MODEL 4
REMARK VINA RESULT:    -3.416      3.418      6.997
REMARK INTER + INTRA:          -8.973
REMARK INTER:                  -5.883
REMARK INTRA:                  -3.089
REMARK UNBOUND:                -2.362
REMARK SMILES CCCCCCCCCCCCCCCCCC(=O)[O-]
REMARK SMILES IDX 10 1 11 2 12 3 13 4 14 5 15 6 16 7 17 8 18 9 19 10 20 11
REMARK SMILES IDX 9 12 8 13 7 14 6 15 5 16 4 17 3 18 2 19 1 20
REMARK H PARENT
REMARK Flexibility Score: inf
ROOT
ATOM      1  C   UNL     1     -99.127  72.864  26.116  1.00  0.00     0.000 C 
ENDROOT
BRANCH   1   2
ATOM      2  C   UNL     1     -99.040  72.717  24.587  1.00  0.00     0.000 C 
BRANCH   2   3
ATOM      3  C   UNL     1     -97.966  71.732  24.089  1.00  0.00     0.000 C 
BRANCH   3   4
ATOM      4  C   UNL     1     -98.264  71.133  22.697  1.00  0.00     0.000 C 
BRANCH   4   5
ATOM      5  C   UNL     1     -98.948  69.759  22.786  1.00  0.00     0.000 C 
BRANCH   5   6
ATOM      6  C   UNL     1    -100.479  69.850  22.671  1.00  0.00     0.000 C 
BRANCH   6   7
ATOM      7  C   UNL     1    -100.966  71.096  21.896  1.00  0.00     0.006 C 
BRANCH   7   8
ATOM      8  C   UNL     1    -102.171  70.809  20.986  1.00  0.00     0.053 C 
BRANCH   8   9
ATOM      9  C   UNL     1    -103.228  70.021  21.697  1.00  0.00     0.041 C 
ATOM     10  O   UNL     1    -103.495  68.846  21.332  1.00  0.00    -0.550 OA
ATOM     11  O   UNL     1    -103.934  70.592  22.748  1.00  0.00    -0.550 OA
ENDBRANCH   8   9
ENDBRANCH   7   8
ENDBRANCH   6   7
ENDBRANCH   5   6
ENDBRANCH   4   5
ENDBRANCH   3   4
ENDBRANCH   2   3
ENDBRANCH   1   2
BRANCH   1  12
ATOM     12  C   UNL     1    -100.519  72.520  26.669  1.00  0.00     0.000 C 
BRANCH  12  13
ATOM     13  C   UNL     1    -101.491  72.183  25.533  1.00  0.00    -0.000 C 
BRANCH  13  14
ATOM     14  C   UNL     1    -102.086  70.779  25.718  1.00  0.00    -0.000 C 
BRANCH  14  15
ATOM     15  C   UNL     1    -101.949  70.262  27.159  1.00  0.00    -0.000 C 
BRANCH  15  16
ATOM     16  C   UNL     1    -101.187  68.927  27.236  1.00  0.00    -0.000 C 
BRANCH  16  17
ATOM     17  C   UNL     1    -100.078  68.819  26.177  1.00  0.00    -0.000 C 
BRANCH  17  18
ATOM     18  C   UNL     1     -98.702  69.260  26.710  1.00  0.00    -0.000 C 
BRANCH  18  19
ATOM     19  C   UNL     1     -98.605  69.162  28.240  1.00  0.00    -0.003 C 
ATOM     20  C   UNL     1     -98.247  70.495  28.895  1.00  0.00     0.004 C 
ENDBRANCH  18  19
ENDBRANCH  17  18
ENDBRANCH  16  17
ENDBRANCH  15  16
ENDBRANCH  14  15
ENDBRANCH  13  14
ENDBRANCH  12  13
ENDBRANCH   1  12
TORSDOF 16
ENDMDL
MODEL 5
REMARK VINA RESULT:    -3.394      1.508      2.615
REMARK INTER + INTRA:          -8.931
REMARK INTER:                  -6.757
REMARK INTRA:                  -2.174
REMARK UNBOUND:                -2.362
REMARK SMILES CCCCCCCCCCCCCCCCCC(=O)[O-]
REMARK SMILES IDX 10 1 11 2 12 3 13 4 14 5 15 6 16 7 17 8 18 9 19 10 20 11
REMARK SMILES IDX 9 12 8 13 7 14 6 15 5 16 4 17 3 18 2 19 1 20
REMARK H PARENT
REMARK Flexibility Score: inf
ROOT
ATOM      1  C   UNL     1     -98.932  69.834  22.905  1.00  0.00     0.000 C 
ENDROOT
BRANCH   1   2
ATOM      2  C   UNL     1     -99.115  68.542  23.720  1.00  0.00     0.000 C 
BRANCH   2   3
ATOM      3  C   UNL     1     -99.274  68.748  25.238  1.00  0.00     0.000 C 
BRANCH   3   4
ATOM      4  C   UNL     1     -99.016  70.199  25.702  1.00  0.00     0.000 C 
BRANCH   4   5
ATOM      5  C   UNL     1    -100.303  70.904  26.160  1.00  0.00     0.000 C 
BRANCH   5   6
ATOM      6  C   UNL     1    -101.309  69.939  26.812  1.00  0.00     0.000 C 
BRANCH   6   7
ATOM      7  C   UNL     1    -101.075  69.736  28.326  1.00  0.00     0.006 C 
BRANCH   7   8
ATOM      8  C   UNL     1    -100.416  68.387  28.661  1.00  0.00     0.053 C 
BRANCH   8   9
ATOM      9  C   UNL     1     -99.071  68.570  29.295  1.00  0.00     0.041 C 
ATOM     10  O   UNL     1     -98.395  69.606  29.060  1.00  0.00    -0.550 OA
ATOM     11  O   UNL     1     -98.553  67.585  30.126  1.00  0.00    -0.550 OA
ENDBRANCH   8   9
ENDBRANCH   7   8
ENDBRANCH   6   7
ENDBRANCH   5   6
ENDBRANCH   4   5
ENDBRANCH   3   4
ENDBRANCH   2   3
ENDBRANCH   1   2
BRANCH   1  12
ATOM     12  C   UNL     1    -100.257  70.390  22.364  1.00  0.00     0.000 C 
BRANCH  12  13
ATOM     13  C   UNL     1    -100.106  71.858  21.947  1.00  0.00    -0.000 C 
BRANCH  13  14
ATOM     14  C   UNL     1    -100.830  72.787  22.933  1.00  0.00    -0.000 C 
BRANCH  14  15
ATOM     15  C   UNL     1     -99.858  73.598  23.806  1.00  0.00    -0.000 C 
BRANCH  15  16
ATOM     16  C   UNL     1     -98.441  73.661  23.208  1.00  0.00    -0.000 C 
BRANCH  16  17
ATOM     17  C   UNL     1     -97.373  73.099  24.161  1.00  0.00    -0.000 C 
BRANCH  17  18
ATOM     18  C   UNL     1     -95.963  73.636  23.857  1.00  0.00    -0.000 C 
BRANCH  18  19
ATOM     19  C   UNL     1     -95.270  72.863  22.725  1.00  0.00    -0.003 C 
ATOM     20  C   UNL     1     -95.274  73.625  21.401  1.00  0.00     0.004 C 
ENDBRANCH  18  19
ENDBRANCH  17  18
ENDBRANCH  16  17
ENDBRANCH  15  16
ENDBRANCH  14  15
ENDBRANCH  13  14
ENDBRANCH  12  13
ENDBRANCH   1  12
TORSDOF 16
ENDMDL
MODEL 6
REMARK VINA RESULT:    -3.387      3.371      6.826
REMARK INTER + INTRA:          -8.916
REMARK INTER:                  -6.073
REMARK INTRA:                  -2.843
REMARK UNBOUND:                -2.362
REMARK SMILES CCCCCCCCCCCCCCCCCC(=O)[O-]
REMARK SMILES IDX 10 1 11 2 12 3 13 4 14 5 15 6 16 7 17 8 18 9 19 10 20 11
REMARK SMILES IDX 9 12 8 13 7 14 6 15 5 16 4 17 3 18 2 19 1 20
REMARK H PARENT
REMARK Flexibility Score: inf
ROOT
ATOM      1  C   UNL     1    -100.901  69.454  26.488  1.00  0.00     0.000 C 
ENDROOT
BRANCH   1   2
ATOM      2  C   UNL     1     -99.545  69.507  25.764  1.00  0.00     0.000 C 
BRANCH   2   3
ATOM      3  C   UNL     1     -99.322  68.395  24.720  1.00  0.00     0.000 C 
BRANCH   3   4
ATOM      4  C   UNL     1     -99.097  68.921  23.286  1.00  0.00     0.000 C 
BRANCH   4   5
ATOM      5  C   UNL     1    -100.126  69.993  22.888  1.00  0.00     0.000 C 
BRANCH   5   6
ATOM      6  C   UNL     1     -99.477  71.351  22.573  1.00  0.00     0.000 C 
BRANCH   6   7
ATOM      7  C   UNL     1     -97.937  71.340  22.695  1.00  0.00     0.006 C 
BRANCH   7   8
ATOM      8  C   UNL     1     -97.420  72.132  23.908  1.00  0.00     0.053 C 
BRANCH   8   9
ATOM      9  C   UNL     1     -96.285  73.036  23.536  1.00  0.00     0.041 C 
ATOM     10  O   UNL     1     -95.191  72.551  23.144  1.00  0.00    -0.550 OA
ATOM     11  O   UNL     1     -96.426  74.414  23.645  1.00  0.00    -0.550 OA
ENDBRANCH   8   9
ENDBRANCH   7   8
ENDBRANCH   6   7
ENDBRANCH   5   6
ENDBRANCH   4   5
ENDBRANCH   3   4
ENDBRANCH   2   3
ENDBRANCH   1   2
BRANCH   1  12
ATOM     12  C   UNL     1    -101.544  70.839  26.650  1.00  0.00     0.000 C 
BRANCH  12  13
ATOM     13  C   UNL     1    -100.635  71.935  26.081  1.00  0.00    -0.000 C 
BRANCH  13  14
ATOM     14  C   UNL     1    -100.110  72.849  27.199  1.00  0.00    -0.000 C 
BRANCH  14  15
ATOM     15  C   UNL     1     -98.580  72.797  27.338  1.00  0.00    -0.000 C 
BRANCH  15  16
ATOM     16  C   UNL     1     -98.131  72.337  28.736  1.00  0.00    -0.000 C 
BRANCH  16  17
ATOM     17  C   UNL     1     -98.254  70.816  28.925  1.00  0.00    -0.000 C 
BRANCH  17  18
ATOM     18  C   UNL     1     -99.396  70.426  29.881  1.00  0.00    -0.000 C 
BRANCH  18  19
ATOM     19  C   UNL     1     -99.614  68.907  29.947  1.00  0.00    -0.003 C 
ATOM     20  C   UNL     1     -98.553  68.124  29.175  1.00  0.00     0.004 C 
ENDBRANCH  18  19
ENDBRANCH  17  18
ENDBRANCH  16  17
ENDBRANCH  15  16
ENDBRANCH  14  15
ENDBRANCH  13  14
ENDBRANCH  12  13
ENDBRANCH   1  12
TORSDOF 16
ENDMDL
MODEL 7
REMARK VINA RESULT:    -3.362      2.019      3.833
REMARK INTER + INTRA:          -8.868
REMARK INTER:                  -5.535
REMARK INTRA:                  -3.334
REMARK UNBOUND:                -2.362
REMARK SMILES CCCCCCCCCCCCCCCCCC(=O)[O-]
REMARK SMILES IDX 10 1 11 2 12 3 13 4 14 5 15 6 16 7 17 8 18 9 19 10 20 11
REMARK SMILES IDX 9 12 8 13 7 14 6 15 5 16 4 17 3 18 2 19 1 20
REMARK H PARENT
REMARK Flexibility Score: inf
ROOT
ATOM      1  C   UNL     1     -97.530  72.032  24.214  1.00  0.00     0.000 C 
ENDROOT
BRANCH   1   2
ATOM      2  C   UNL     1     -98.196  73.313  24.748  1.00  0.00     0.000 C 
BRANCH   2   3
ATOM      3  C   UNL     1     -99.369  73.079  25.719  1.00  0.00     0.000 C 
BRANCH   3   4
ATOM      4  C   UNL     1     -99.550  71.603  26.136  1.00  0.00     0.000 C 
BRANCH   4   5
ATOM      5  C   UNL     1    -100.953  71.322  26.700  1.00  0.00     0.000 C 
BRANCH   5   6
ATOM      6  C   UNL     1    -101.417  69.878  26.446  1.00  0.00     0.000 C 
BRANCH   6   7
ATOM      7  C   UNL     1    -100.372  68.815  26.852  1.00  0.00     0.006 C 
BRANCH   7   8
ATOM      8  C   UNL     1    -100.399  68.483  28.353  1.00  0.00     0.053 C 
BRANCH   8   9
ATOM      9  C   UNL     1     -99.033  68.564  28.963  1.00  0.00     0.041 C 
ATOM     10  O   UNL     1     -98.641  67.674  29.762  1.00  0.00    -0.550 OA
ATOM     11  O   UNL     1     -98.200  69.636  28.667  1.00  0.00    -0.550 OA
ENDBRANCH   8   9
ENDBRANCH   7   8
ENDBRANCH   6   7
ENDBRANCH   5   6
ENDBRANCH   4   5
ENDBRANCH   3   4
ENDBRANCH   2   3
ENDBRANCH   1   2
BRANCH   1  12
ATOM     12  C   UNL     1     -97.322  72.061  22.692  1.00  0.00     0.000 C 
BRANCH  12  13
ATOM     13  C   UNL     1     -98.160  70.977  22.004  1.00  0.00    -0.000 C 
BRANCH  13  14
ATOM     14  C   UNL     1     -98.688  69.960  23.026  1.00  0.00    -0.000 C 
BRANCH  14  15
ATOM     15  C   UNL     1    -100.209  69.754  22.926  1.00  0.00    -0.000 C 
BRANCH  15  16
ATOM     16  C   UNL     1    -100.911  70.905  22.184  1.00  0.00    -0.000 C 
BRANCH  16  17
ATOM     17  C   UNL     1    -101.740  71.794  23.125  1.00  0.00    -0.000 C 
BRANCH  17  18
ATOM     18  C   UNL     1    -101.628  73.291  22.781  1.00  0.00    -0.000 C 
BRANCH  18  19
ATOM     19  C   UNL     1    -100.766  73.545  21.535  1.00  0.00    -0.003 C 
ATOM     20  C   UNL     1     -99.775  74.691  21.727  1.00  0.00     0.004 C 
ENDBRANCH  18  19
ENDBRANCH  17  18
ENDBRANCH  16  17
ENDBRANCH  15  16
ENDBRANCH  14  15
ENDBRANCH  13  14
ENDBRANCH  12  13
ENDBRANCH   1  12
TORSDOF 16
ENDMDL
MODEL 8
REMARK VINA RESULT:    -3.334      1.380      2.128
REMARK INTER + INTRA:          -8.815
REMARK INTER:                  -6.325
REMARK INTRA:                  -2.489
REMARK UNBOUND:                -2.362
REMARK SMILES CCCCCCCCCCCCCCCCCC(=O)[O-]
REMARK SMILES IDX 10 1 11 2 12 3 13 4 14 5 15 6 16 7 17 8 18 9 19 10 20 11
REMARK SMILES IDX 9 12 8 13 7 14 6 15 5 16 4 17 3 18 2 19 1 20
REMARK H PARENT
REMARK Flexibility Score: inf
ROOT
ATOM      1  C   UNL     1    -101.083  71.339  23.057  1.00  0.00     0.000 C 
ENDROOT
BRANCH   1   2
ATOM      2  C   UNL     1    -100.174  70.379  22.269  1.00  0.00     0.000 C 
BRANCH   2   3
ATOM      3  C   UNL     1     -98.975  69.822  23.062  1.00  0.00     0.000 C 
BRANCH   3   4
ATOM      4  C   UNL     1     -99.334  68.640  23.988  1.00  0.00     0.000 C 
BRANCH   4   5
ATOM      5  C   UNL     1     -99.188  68.999  25.477  1.00  0.00     0.000 C 
BRANCH   5   6
ATOM      6  C   UNL     1    -100.529  69.374  26.131  1.00  0.00     0.000 C 
BRANCH   6   7
ATOM      7  C   UNL     1    -100.840  68.560  27.407  1.00  0.00     0.006 C 
BRANCH   7   8
ATOM      8  C   UNL     1    -100.759  69.398  28.694  1.00  0.00     0.053 C 
BRANCH   8   9
ATOM      9  C   UNL     1     -99.484  69.148  29.438  1.00  0.00     0.041 C 
ATOM     10  O   UNL     1     -99.274  69.711  30.545  1.00  0.00    -0.550 OA
ATOM     11  O   UNL     1     -98.514  68.311  28.899  1.00  0.00    -0.550 OA
ENDBRANCH   8   9
ENDBRANCH   7   8
ENDBRANCH   6   7
ENDBRANCH   5   6
ENDBRANCH   4   5
ENDBRANCH   3   4
ENDBRANCH   2   3
ENDBRANCH   1   2
BRANCH   1  12
ATOM     12  C   UNL     1    -100.293  72.386  23.856  1.00  0.00     0.000 C 
BRANCH  12  13
ATOM     13  C   UNL     1     -99.731  73.471  22.930  1.00  0.00    -0.000 C 
BRANCH  13  14
ATOM     14  C   UNL     1     -98.450  74.083  23.516  1.00  0.00    -0.000 C 
BRANCH  14  15
ATOM     15  C   UNL     1     -97.637  73.076  24.346  1.00  0.00    -0.000 C 
BRANCH  15  16
ATOM     16  C   UNL     1     -96.445  72.495  23.566  1.00  0.00    -0.000 C 
BRANCH  16  17
ATOM     17  C   UNL     1     -95.765  73.539  22.665  1.00  0.00    -0.000 C 
BRANCH  17  18
ATOM     18  C   UNL     1     -95.702  73.101  21.190  1.00  0.00    -0.000 C 
BRANCH  18  19
ATOM     19  C   UNL     1     -96.631  71.914  20.889  1.00  0.00    -0.003 C 
ATOM     20  C   UNL     1     -97.860  72.320  20.078  1.00  0.00     0.004 C 
ENDBRANCH  18  19
ENDBRANCH  17  18
ENDBRANCH  16  17
ENDBRANCH  15  16
ENDBRANCH  14  15
ENDBRANCH  13  14
ENDBRANCH  12  13
ENDBRANCH   1  12
TORSDOF 16
ENDMDL
MODEL 9
REMARK VINA RESULT:    -3.321      3.517      7.720
REMARK INTER + INTRA:          -8.789
REMARK INTER:                  -6.857
REMARK INTRA:                  -1.932
REMARK UNBOUND:                -2.362
REMARK SMILES CCCCCCCCCCCCCCCCCC(=O)[O-]
REMARK SMILES IDX 10 1 11 2 12 3 13 4 14 5 15 6 16 7 17 8 18 9 19 10 20 11
REMARK SMILES IDX 9 12 8 13 7 14 6 15 5 16 4 17 3 18 2 19 1 20
REMARK H PARENT
REMARK Flexibility Score: inf
ROOT
ATOM      1  C   UNL     1     -98.872  70.246  22.440  1.00  0.00     0.000 C 
ENDROOT
BRANCH   1   2
ATOM      2  C   UNL     1     -98.815  71.658  23.048  1.00  0.00     0.000 C 
BRANCH   2   3
ATOM      3  C   UNL     1     -97.616  71.917  23.980  1.00  0.00     0.000 C 
BRANCH   3   4
ATOM      4  C   UNL     1     -97.344  73.413  24.247  1.00  0.00     0.000 C 
BRANCH   4   5
ATOM      5  C   UNL     1     -95.915  73.827  23.855  1.00  0.00     0.000 C 
BRANCH   5   6
ATOM      6  C   UNL     1     -95.272  72.858  22.849  1.00  0.00     0.000 C 
BRANCH   6   7
ATOM      7  C   UNL     1     -95.307  73.370  21.391  1.00  0.00     0.006 C 
BRANCH   7   8
ATOM      8  C   UNL     1     -96.098  72.450  20.446  1.00  0.00     0.053 C 
BRANCH   8   9
ATOM      9  C   UNL     1     -97.428  73.037  20.087  1.00  0.00     0.041 C 
ATOM     10  O   UNL     1     -98.132  72.509  19.187  1.00  0.00    -0.550 OA
ATOM     11  O   UNL     1     -97.881  74.183  20.730  1.00  0.00    -0.550 OA
ENDBRANCH   8   9
ENDBRANCH   7   8
ENDBRANCH   6   7
ENDBRANCH   5   6
ENDBRANCH   4   5
ENDBRANCH   3   4
ENDBRANCH   2   3
ENDBRANCH   1   2
BRANCH   1  12
ATOM     12  C   UNL     1     -99.856  69.322  23.172  1.00  0.00     0.000 C 
BRANCH  12  13
ATOM     13  C   UNL     1     -99.112  68.354  24.099  1.00  0.00    -0.000 C 
BRANCH  13  14
ATOM     14  C   UNL     1     -99.124  68.863  25.548  1.00  0.00    -0.000 C 
BRANCH  14  15
ATOM     15  C   UNL     1    -100.348  69.740  25.858  1.00  0.00    -0.000 C 
BRANCH  15  16
ATOM     16  C   UNL     1    -100.677  69.782  27.361  1.00  0.00    -0.000 C 
BRANCH  16  17
ATOM     17  C   UNL     1     -99.797  70.780  28.130  1.00  0.00    -0.000 C 
BRANCH  17  18
ATOM     18  C   UNL     1     -98.754  70.087  29.025  1.00  0.00    -0.000 C 
BRANCH  18  19
ATOM     19  C   UNL     1     -99.375  69.007  29.924  1.00  0.00    -0.003 C 
ATOM     20  C   UNL     1     -98.849  67.607  29.613  1.00  0.00     0.004 C 
ENDBRANCH  18  19
ENDBRANCH  17  18
ENDBRANCH  16  17
ENDBRANCH  15  16
ENDBRANCH  14  15
ENDBRANCH  13  14
ENDBRANCH  12  13
ENDBRANCH   1  12
TORSDOF 16
ENDMDL
