MODEL 1
REMARK VINA RESULT:    -5.798      0.000      0.000
REMARK INTER + INTRA:          -6.137
REMARK INTER:                  -6.137
REMARK INTRA:                   0.000
REMARK UNBOUND:                 0.000
REMARK SMILES O=c1ccc2cc(O)c(O)cc2o1
REMARK SMILES IDX 4 1 3 2 2 3 1 4 13 5 12 6 11 7 9 8 7 9 6 10 5 11 8 12 10 14
REMARK H PARENT 8 13 10 15
REMARK Flexibility Score: inf
ROOT
ATOM      1  C   UNL     1      90.469  -0.175  43.554  1.00  0.00     0.019 A 
ATOM      2  C   UNL     1      89.540  -1.116  44.002  1.00  0.00     0.094 A 
ATOM      3  C   UNL     1      88.418  -0.674  44.711  1.00  0.00     0.336 A 
ATOM      4  O   UNL     1      87.569  -1.508  45.123  1.00  0.00    -0.246 OA
ATOM      5  O   UNL     1      88.240   0.622  44.954  1.00  0.00    -0.423 OA
ATOM      6  C   UNL     1      89.100   1.551  44.544  1.00  0.00     0.142 A 
ATOM      7  C   UNL     1      88.861   2.899  44.829  1.00  0.00     0.098 A 
ATOM      8  C   UNL     1      89.765   3.882  44.399  1.00  0.00     0.161 A 
ATOM      9  C   UNL     1      90.913   3.514  43.684  1.00  0.00     0.158 A 
ATOM     10  C   UNL     1      91.158   2.164  43.395  1.00  0.00     0.062 A 
ATOM     11  C   UNL     1      90.256   1.181  43.823  1.00  0.00     0.022 A 
ENDROOT
BRANCH   9  12
ATOM     12  O   UNL     1      91.806   4.498  43.260  1.00  0.00    -0.504 OA
ATOM     13  H   UNL     1      92.771   4.505  43.566  1.00  0.00     0.293 HD
ENDBRANCH   9  12
BRANCH   8  14
ATOM     14  O   UNL     1      89.529   5.227  44.681  1.00  0.00    -0.504 OA
ATOM     15  H   UNL     1      90.107   5.741  45.336  1.00  0.00     0.293 HD
ENDBRANCH   8  14
TORSDOF 2
ENDMDL
MODEL 2
REMARK VINA RESULT:    -5.719      1.544      2.264
REMARK INTER + INTRA:          -6.053
REMARK INTER:                  -6.053
REMARK INTRA:                   0.000
REMARK UNBOUND:                 0.000
REMARK SMILES O=c1ccc2cc(O)c(O)cc2o1
REMARK SMILES IDX 4 1 3 2 2 3 1 4 13 5 12 6 11 7 9 8 7 9 6 10 5 11 8 12 10 14
REMARK H PARENT 8 13 10 15
REMARK Flexibility Score: inf
ROOT
ATOM      1  C   UNL     1      89.485  -2.383  43.637  1.00  0.00     0.019 A 
ATOM      2  C   UNL     1      88.383  -3.135  44.047  1.00  0.00     0.094 A 
ATOM      3  C   UNL     1      87.377  -2.512  44.793  1.00  0.00     0.336 A 
ATOM      4  O   UNL     1      86.375  -3.173  45.171  1.00  0.00    -0.246 OA
ATOM      5  O   UNL     1      87.471  -1.221  45.106  1.00  0.00    -0.423 OA
ATOM      6  C   UNL     1      88.503  -0.469  44.735  1.00  0.00     0.142 A 
ATOM      7  C   UNL     1      88.548   0.882  45.093  1.00  0.00     0.098 A 
ATOM      8  C   UNL     1      89.635   1.680  44.704  1.00  0.00     0.161 A 
ATOM      9  C   UNL     1      90.681   1.123  43.955  1.00  0.00     0.158 A 
ATOM     10  C   UNL     1      90.642  -0.232  43.593  1.00  0.00     0.062 A 
ATOM     11  C   UNL     1      89.557  -1.030  43.981  1.00  0.00     0.022 A 
ENDROOT
BRANCH   9  12
ATOM     12  O   UNL     1      91.757   1.923  43.573  1.00  0.00    -0.504 OA
ATOM     13  H   UNL     1      91.665   2.622  42.846  1.00  0.00     0.293 HD
ENDBRANCH   9  12
BRANCH   8  14
ATOM     14  O   UNL     1      89.682   3.027  45.060  1.00  0.00    -0.504 OA
ATOM     15  H   UNL     1      89.376   3.345  45.972  1.00  0.00     0.293 HD
ENDBRANCH   8  14
TORSDOF 2
ENDMDL
MODEL 3
REMARK VINA RESULT:    -5.717      1.871      5.464
REMARK INTER + INTRA:          -6.051
REMARK INTER:                  -6.051
REMARK INTRA:                   0.000
REMARK UNBOUND:                 0.000
REMARK SMILES O=c1ccc2cc(O)c(O)cc2o1
REMARK SMILES IDX 4 1 3 2 2 3 1 4 13 5 12 6 11 7 9 8 7 9 6 10 5 11 8 12 10 14
REMARK H PARENT 8 13 10 15
REMARK Flexibility Score: inf
ROOT
ATOM      1  C   UNL     1      90.354  -0.195  43.647  1.00  0.00     0.019 A 
ATOM      2  C   UNL     1      90.119   1.137  43.993  1.00  0.00     0.094 A 
ATOM      3  C   UNL     1      88.956   1.457  44.701  1.00  0.00     0.336 A 
ATOM      4  O   UNL     1      88.727   2.652  45.023  1.00  0.00    -0.246 OA
ATOM      5  O   UNL     1      88.089   0.506  45.040  1.00  0.00    -0.423 OA
ATOM      6  C   UNL     1      88.276  -0.774  44.730  1.00  0.00     0.142 A 
ATOM      7  C   UNL     1      87.329  -1.731  45.113  1.00  0.00     0.098 A 
ATOM      8  C   UNL     1      87.521  -3.082  44.789  1.00  0.00     0.161 A 
ATOM      9  C   UNL     1      88.663  -3.478  44.078  1.00  0.00     0.158 A 
ATOM     10  C   UNL     1      89.616  -2.523  43.692  1.00  0.00     0.062 A 
ATOM     11  C   UNL     1      89.426  -1.173  44.016  1.00  0.00     0.022 A 
ENDROOT
BRANCH   9  12
ATOM     12  O   UNL     1      88.846  -4.823  43.761  1.00  0.00    -0.504 OA
ATOM     13  H   UNL     1      89.160  -5.113  42.843  1.00  0.00     0.293 HD
ENDBRANCH   9  12
BRANCH   8  14
ATOM     14  O   UNL     1      86.579  -4.038  45.169  1.00  0.00    -0.504 OA
ATOM     15  H   UNL     1      86.652  -4.531  46.051  1.00  0.00     0.293 HD
ENDBRANCH   8  14
TORSDOF 2
ENDMDL
MODEL 4
REMARK VINA RESULT:    -5.694      1.300      2.316
REMARK INTER + INTRA:          -6.027
REMARK INTER:                  -6.027
REMARK INTRA:                   0.000
REMARK UNBOUND:                 0.000
REMARK SMILES O=c1ccc2cc(O)c(O)cc2o1
REMARK SMILES IDX 4 1 3 2 2 3 1 4 13 5 12 6 11 7 9 8 7 9 6 10 5 11 8 12 10 14
REMARK H PARENT 8 13 10 15
REMARK Flexibility Score: inf
ROOT
ATOM      1  C   UNL     1      88.408   0.438  44.768  1.00  0.00     0.019 A 
ATOM      2  C   UNL     1      88.776  -0.868  44.442  1.00  0.00     0.094 A 
ATOM      3  C   UNL     1      89.982  -1.084  43.768  1.00  0.00     0.336 A 
ATOM      4  O   UNL     1      90.331  -2.255  43.466  1.00  0.00    -0.246 OA
ATOM      5  O   UNL     1      90.766  -0.059  43.443  1.00  0.00    -0.423 OA
ATOM      6  C   UNL     1      90.453   1.201  43.736  1.00  0.00     0.142 A 
ATOM      7  C   UNL     1      91.317   2.238  43.369  1.00  0.00     0.098 A 
ATOM      8  C   UNL     1      90.992   3.569  43.675  1.00  0.00     0.161 A 
ATOM      9  C   UNL     1      89.798   3.861  44.349  1.00  0.00     0.158 A 
ATOM     10  C   UNL     1      88.927   2.825  44.719  1.00  0.00     0.062 A 
ATOM     11  C   UNL     1      89.252   1.496  44.414  1.00  0.00     0.022 A 
ENDROOT
BRANCH   9  12
ATOM     12  O   UNL     1      89.483   5.186  44.649  1.00  0.00    -0.504 OA
ATOM     13  H   UNL     1      90.162   5.930  44.541  1.00  0.00     0.293 HD
ENDBRANCH   9  12
BRANCH   8  14
ATOM     14  O   UNL     1      91.851   4.605  43.311  1.00  0.00    -0.504 OA
ATOM     15  H   UNL     1      91.720   5.124  42.451  1.00  0.00     0.293 HD
ENDBRANCH   8  14
TORSDOF 2
ENDMDL
MODEL 5
REMARK VINA RESULT:    -5.690      1.822      5.360
REMARK INTER + INTRA:          -6.023
REMARK INTER:                  -6.023
REMARK INTRA:                   0.000
REMARK UNBOUND:                 0.000
REMARK SMILES O=c1ccc2cc(O)c(O)cc2o1
REMARK SMILES IDX 4 1 3 2 2 3 1 4 13 5 12 6 11 7 9 8 7 9 6 10 5 11 8 12 10 14
REMARK H PARENT 8 13 10 15
REMARK Flexibility Score: inf
ROOT
ATOM      1  C   UNL     1      88.822   1.794  44.748  1.00  0.00     0.019 A 
ATOM      2  C   UNL     1      89.997   2.435  44.355  1.00  0.00     0.094 A 
ATOM      3  C   UNL     1      90.954   1.713  43.633  1.00  0.00     0.336 A 
ATOM      4  O   UNL     1      92.020   2.275  43.270  1.00  0.00    -0.246 OA
ATOM      5  O   UNL     1      90.744   0.435  43.327  1.00  0.00    -0.423 OA
ATOM      6  C   UNL     1      89.638  -0.213  43.682  1.00  0.00     0.142 A 
ATOM      7  C   UNL     1      89.473  -1.557  43.331  1.00  0.00     0.098 A 
ATOM      8  C   UNL     1      88.308  -2.245  43.703  1.00  0.00     0.161 A 
ATOM      9  C   UNL     1      87.306  -1.586  44.429  1.00  0.00     0.158 A 
ATOM     10  C   UNL     1      87.465  -0.238  44.783  1.00  0.00     0.062 A 
ATOM     11  C   UNL     1      88.629   0.450  44.412  1.00  0.00     0.022 A 
ENDROOT
BRANCH   9  12
ATOM     12  O   UNL     1      86.151  -2.278  44.793  1.00  0.00    -0.504 OA
ATOM     13  H   UNL     1      85.352  -2.340  44.174  1.00  0.00     0.293 HD
ENDBRANCH   9  12
BRANCH   8  14
ATOM     14  O   UNL     1      88.141  -3.585  43.355  1.00  0.00    -0.504 OA
ATOM     15  H   UNL     1      88.434  -4.333  43.972  1.00  0.00     0.293 HD
ENDBRANCH   8  14
TORSDOF 2
ENDMDL
MODEL 6
REMARK VINA RESULT:    -5.581      1.821      3.207
REMARK INTER + INTRA:          -5.907
REMARK INTER:                  -5.907
REMARK INTRA:                   0.000
REMARK UNBOUND:                 0.000
REMARK SMILES O=c1ccc2cc(O)c(O)cc2o1
REMARK SMILES IDX 4 1 3 2 2 3 1 4 13 5 12 6 11 7 9 8 7 9 6 10 5 11 8 12 10 14
REMARK H PARENT 8 13 10 15
REMARK Flexibility Score: inf
ROOT
ATOM      1  C   UNL     1      87.338  -1.163  45.122  1.00  0.00     0.019 A 
ATOM      2  C   UNL     1      87.234  -2.518  44.802  1.00  0.00     0.094 A 
ATOM      3  C   UNL     1      88.239  -3.110  44.030  1.00  0.00     0.336 A 
ATOM      4  O   UNL     1      88.164  -4.331  43.732  1.00  0.00    -0.246 OA
ATOM      5  O   UNL     1      89.277  -2.392  43.608  1.00  0.00    -0.423 OA
ATOM      6  C   UNL     1      89.415  -1.099  43.891  1.00  0.00     0.142 A 
ATOM      7  C   UNL     1      90.528  -0.396  43.420  1.00  0.00     0.098 A 
ATOM      8  C   UNL     1      90.678   0.968  43.715  1.00  0.00     0.161 A 
ATOM      9  C   UNL     1      89.709   1.629  44.484  1.00  0.00     0.158 A 
ATOM     10  C   UNL     1      88.591   0.929  44.959  1.00  0.00     0.062 A 
ATOM     11  C   UNL     1      88.440  -0.434  44.665  1.00  0.00     0.022 A 
ENDROOT
BRANCH   9  12
ATOM     12  O   UNL     1      89.866   2.984  44.773  1.00  0.00    -0.504 OA
ATOM     13  H   UNL     1      90.197   3.640  44.075  1.00  0.00     0.293 HD
ENDBRANCH   9  12
BRANCH   8  14
ATOM     14  O   UNL     1      91.786   1.672  43.248  1.00  0.00    -0.504 OA
ATOM     15  H   UNL     1      92.026   1.689  42.263  1.00  0.00     0.293 HD
ENDBRANCH   8  14
TORSDOF 2
ENDMDL
MODEL 7
REMARK VINA RESULT:    -5.488      3.885      5.364
REMARK INTER + INTRA:          -5.808
REMARK INTER:                  -5.808
REMARK INTRA:                   0.000
REMARK UNBOUND:                 0.000
REMARK SMILES O=c1ccc2cc(O)c(O)cc2o1
REMARK SMILES IDX 4 1 3 2 2 3 1 4 13 5 12 6 11 7 9 8 7 9 6 10 5 11 8 12 10 14
REMARK H PARENT 8 13 10 15
REMARK Flexibility Score: inf
ROOT
ATOM      1  C   UNL     1      88.685  -0.186  44.330  1.00  0.00     0.019 A 
ATOM      2  C   UNL     1      87.322  -0.221  44.624  1.00  0.00     0.094 A 
ATOM      3  C   UNL     1      86.684  -1.461  44.733  1.00  0.00     0.336 A 
ATOM      4  O   UNL     1      85.454  -1.513  44.999  1.00  0.00    -0.246 OA
ATOM      5  O   UNL     1      87.368  -2.589  44.559  1.00  0.00    -0.423 OA
ATOM      6  C   UNL     1      88.669  -2.600  44.278  1.00  0.00     0.142 A 
ATOM      7  C   UNL     1      89.336  -3.817  44.105  1.00  0.00     0.098 A 
ATOM      8  C   UNL     1      90.707  -3.834  43.808  1.00  0.00     0.161 A 
ATOM      9  C   UNL     1      91.412  -2.629  43.683  1.00  0.00     0.158 A 
ATOM     10  C   UNL     1      90.749  -1.405  43.856  1.00  0.00     0.062 A 
ATOM     11  C   UNL     1      89.379  -1.387  44.152  1.00  0.00     0.022 A 
ENDROOT
BRANCH   9  12
ATOM     12  O   UNL     1      92.775  -2.656  43.389  1.00  0.00    -0.504 OA
ATOM     13  H   UNL     1      93.408  -3.290  43.862  1.00  0.00     0.293 HD
ENDBRANCH   9  12
BRANCH   8  14
ATOM     14  O   UNL     1      91.375  -5.046  43.636  1.00  0.00    -0.504 OA
ATOM     15  H   UNL     1      92.258  -5.098  43.142  1.00  0.00     0.293 HD
ENDBRANCH   8  14
TORSDOF 2
ENDMDL
MODEL 8
REMARK VINA RESULT:    -5.451      3.001      4.477
REMARK INTER + INTRA:          -5.770
REMARK INTER:                  -5.770
REMARK INTRA:                   0.000
REMARK UNBOUND:                 0.000
REMARK SMILES O=c1ccc2cc(O)c(O)cc2o1
REMARK SMILES IDX 4 1 3 2 2 3 1 4 13 5 12 6 11 7 9 8 7 9 6 10 5 11 8 12 10 14
REMARK H PARENT 8 13 10 15
REMARK Flexibility Score: inf
ROOT
ATOM      1  C   UNL     1      86.901  -0.603  44.748  1.00  0.00     0.019 A 
ATOM      2  C   UNL     1      85.999  -1.584  45.162  1.00  0.00     0.094 A 
ATOM      3  C   UNL     1      86.405  -2.923  45.155  1.00  0.00     0.336 A 
ATOM      4  O   UNL     1      85.605  -3.822  45.526  1.00  0.00    -0.246 OA
ATOM      5  O   UNL     1      87.632  -3.255  44.761  1.00  0.00    -0.423 OA
ATOM      6  C   UNL     1      88.522  -2.351  44.359  1.00  0.00     0.142 A 
ATOM      7  C   UNL     1      89.798  -2.758  43.955  1.00  0.00     0.098 A 
ATOM      8  C   UNL     1      90.740  -1.810  43.531  1.00  0.00     0.161 A 
ATOM      9  C   UNL     1      90.404  -0.449  43.510  1.00  0.00     0.158 A 
ATOM     10  C   UNL     1      89.127  -0.034  43.914  1.00  0.00     0.062 A 
ATOM     11  C   UNL     1      88.184  -0.981  44.338  1.00  0.00     0.022 A 
ENDROOT
BRANCH   9  12
ATOM     12  O   UNL     1      91.348   0.487  43.087  1.00  0.00    -0.504 OA
ATOM     13  H   UNL     1      91.386   0.804  42.126  1.00  0.00     0.293 HD
ENDBRANCH   9  12
BRANCH   8  14
ATOM     14  O   UNL     1      92.013  -2.213  43.128  1.00  0.00    -0.504 OA
ATOM     15  H   UNL     1      92.493  -2.981  43.582  1.00  0.00     0.293 HD
ENDBRANCH   8  14
TORSDOF 2
ENDMDL
MODEL 9
REMARK VINA RESULT:    -5.420      3.799      5.357
REMARK INTER + INTRA:          -5.737
REMARK INTER:                  -5.737
REMARK INTRA:                   0.000
REMARK UNBOUND:                 0.000
REMARK SMILES O=c1ccc2cc(O)c(O)cc2o1
REMARK SMILES IDX 4 1 3 2 2 3 1 4 13 5 12 6 11 7 9 8 7 9 6 10 5 11 8 12 10 14
REMARK H PARENT 8 13 10 15
REMARK Flexibility Score: inf
ROOT
ATOM      1  C   UNL     1      90.262  -1.064  43.734  1.00  0.00     0.019 A 
ATOM      2  C   UNL     1      91.174  -2.085  43.463  1.00  0.00     0.094 A 
ATOM      3  C   UNL     1      90.772  -3.415  43.634  1.00  0.00     0.336 A 
ATOM      4  O   UNL     1      91.580  -4.350  43.394  1.00  0.00    -0.246 OA
ATOM      5  O   UNL     1      89.540  -3.699  44.048  1.00  0.00    -0.423 OA
ATOM      6  C   UNL     1      88.640  -2.755  44.316  1.00  0.00     0.142 A 
ATOM      7  C   UNL     1      87.359  -3.114  44.748  1.00  0.00     0.098 A 
ATOM      8  C   UNL     1      86.407  -2.124  45.033  1.00  0.00     0.161 A 
ATOM      9  C   UNL     1      86.739  -0.770  44.885  1.00  0.00     0.158 A 
ATOM     10  C   UNL     1      88.022  -0.404  44.452  1.00  0.00     0.062 A 
ATOM     11  C   UNL     1      88.974  -1.392  44.167  1.00  0.00     0.022 A 
ENDROOT
BRANCH   9  12
ATOM     12  O   UNL     1      85.786   0.208  45.170  1.00  0.00    -0.504 OA
ATOM     13  H   UNL     1      85.658   1.014  44.569  1.00  0.00     0.293 HD
ENDBRANCH   9  12
BRANCH   8  14
ATOM     14  O   UNL     1      85.130  -2.478  45.463  1.00  0.00    -0.504 OA
ATOM     15  H   UNL     1      84.811  -3.440  45.442  1.00  0.00     0.293 HD
ENDBRANCH   8  14
TORSDOF 2
ENDMDL
