MODEL 1
REMARK VINA RESULT:    -6.696      0.000      0.000
REMARK INTER + INTRA:          -8.152
REMARK INTER:                  -7.870
REMARK INTRA:                  -0.281
REMARK UNBOUND:                -0.281
REMARK SMILES O=c1c(O)c(-c2ccc(O)cc2)oc2cc(O)cc(O)c12
REMARK SMILES IDX 5 1 3 2 2 3 1 4 21 5 19 6 18 7 16 8 15 9 14 10 13 11 6 12
REMARK SMILES IDX 7 13 8 14 9 15 12 16 11 17 10 18 4 20 20 22 17 24
REMARK H PARENT 10 19 4 21 20 23 17 25
REMARK Flexibility Score: inf
ROOT
ATOM      1  C   UNL     1       9.318  11.595 -15.928  1.00  0.00     0.180 A 
ATOM      2  C   UNL     1       9.851  10.393 -16.426  1.00  0.00     0.208 A 
ATOM      3  C   UNL     1       9.527   9.187 -15.783  1.00  0.00     0.238 A 
ATOM      4  O   UNL     1       9.963   8.109 -16.266  1.00  0.00    -0.285 OA
ATOM      5  C   UNL     1       8.687   9.199 -14.644  1.00  0.00     0.111 A 
ATOM      6  C   UNL     1       8.325   8.042 -13.891  1.00  0.00     0.134 A 
ATOM      7  C   UNL     1       7.383   8.154 -12.862  1.00  0.00     0.093 A 
ATOM      8  C   UNL     1       6.840   9.391 -12.514  1.00  0.00     0.123 A 
ATOM      9  C   UNL     1       7.232  10.539 -13.205  1.00  0.00     0.094 A 
ATOM     10  C   UNL     1       8.141  10.453 -14.261  1.00  0.00     0.146 A 
ATOM     11  O   UNL     1       8.480  11.567 -14.898  1.00  0.00    -0.452 OA
ENDROOT
BRANCH   1  12
ATOM     12  C   UNL     1       9.634  12.907 -16.536  1.00  0.00     0.021 A 
ATOM     13  C   UNL     1       8.867  13.372 -17.618  1.00  0.00     0.016 A 
ATOM     14  C   UNL     1       9.133  14.619 -18.191  1.00  0.00     0.047 A 
ATOM     15  C   UNL     1      10.157  15.423 -17.684  1.00  0.00     0.115 A 
ATOM     16  C   UNL     1      10.650  13.731 -16.016  1.00  0.00     0.016 A 
ATOM     17  C   UNL     1      10.914  14.977 -16.592  1.00  0.00     0.047 A 
BRANCH  15  18
ATOM     18  O   UNL     1      10.412  16.662 -18.266  1.00  0.00    -0.508 OA
ATOM     19  H   UNL     1      11.355  16.956 -18.496  1.00  0.00     0.293 HD
ENDBRANCH  15  18
ENDBRANCH   1  12
BRANCH   2  20
ATOM     20  O   UNL     1      10.660  10.401 -17.565  1.00  0.00    -0.502 OA
ATOM     21  H   UNL     1      11.541   9.902 -17.611  1.00  0.00     0.293 HD
ENDBRANCH   2  20
BRANCH   6  22
ATOM     22  O   UNL     1       8.877   6.773 -14.096  1.00  0.00    -0.507 OA
ATOM     23  H   UNL     1       8.590   6.132 -14.818  1.00  0.00     0.293 HD
ENDBRANCH   6  22
BRANCH   8  24
ATOM     24  O   UNL     1       5.917   9.469 -11.473  1.00  0.00    -0.508 OA
ATOM     25  H   UNL     1       5.318  10.277 -11.355  1.00  0.00     0.293 HD
ENDBRANCH   8  24
TORSDOF 5
ENDMDL
MODEL 2
REMARK VINA RESULT:    -6.580      1.969      7.288
REMARK INTER + INTRA:          -8.016
REMARK INTER:                  -7.716
REMARK INTRA:                  -0.300
REMARK UNBOUND:                -0.281
REMARK SMILES O=c1c(O)c(-c2ccc(O)cc2)oc2cc(O)cc(O)c12
REMARK SMILES IDX 5 1 3 2 2 3 1 4 21 5 19 6 18 7 16 8 15 9 14 10 13 11 6 12
REMARK SMILES IDX 7 13 8 14 9 15 12 16 11 17 10 18 4 20 20 22 17 24
REMARK H PARENT 10 19 4 21 20 23 17 25
REMARK Flexibility Score: inf
ROOT
ATOM      1  C   UNL     1       9.397  12.224 -17.065  1.00  0.00     0.180 A 
ATOM      2  C   UNL     1       9.953  13.354 -16.441  1.00  0.00     0.208 A 
ATOM      3  C   UNL     1       9.958  14.579 -17.130  1.00  0.00     0.238 A 
ATOM      4  O   UNL     1      10.408  15.598 -16.545  1.00  0.00    -0.285 OA
ATOM      5  C   UNL     1       9.422  14.654 -18.437  1.00  0.00     0.111 A 
ATOM      6  C   UNL     1       9.410  15.832 -19.243  1.00  0.00     0.134 A 
ATOM      7  C   UNL     1       8.737  15.823 -20.470  1.00  0.00     0.093 A 
ATOM      8  C   UNL     1       8.130  14.664 -20.951  1.00  0.00     0.123 A 
ATOM      9  C   UNL     1       8.186  13.489 -20.198  1.00  0.00     0.094 A 
ATOM     10  C   UNL     1       8.820  13.476 -18.954  1.00  0.00     0.146 A 
ATOM     11  O   UNL     1       8.842  12.341 -18.266  1.00  0.00    -0.452 OA
ENDROOT
BRANCH   1  12
ATOM     12  C   UNL     1       9.378  10.895 -16.413  1.00  0.00     0.021 A 
ATOM     13  C   UNL     1       8.240  10.494 -15.692  1.00  0.00     0.016 A 
ATOM     14  C   UNL     1       8.192   9.234 -15.088  1.00  0.00     0.047 A 
ATOM     15  C   UNL     1       9.270   8.353 -15.209  1.00  0.00     0.115 A 
ATOM     16  C   UNL     1      10.452   9.996 -16.549  1.00  0.00     0.016 A 
ATOM     17  C   UNL     1      10.400   8.736 -15.944  1.00  0.00     0.047 A 
BRANCH  15  18
ATOM     18  O   UNL     1       9.209   7.101 -14.602  1.00  0.00    -0.508 OA
ATOM     19  H   UNL     1       9.203   7.001 -13.593  1.00  0.00     0.293 HD
ENDBRANCH  15  18
ENDBRANCH   1  12
BRANCH   2  20
ATOM     20  O   UNL     1      10.457  13.264 -15.141  1.00  0.00    -0.502 OA
ATOM     21  H   UNL     1      11.242  13.818 -14.822  1.00  0.00     0.293 HD
ENDBRANCH   2  20
BRANCH   6  22
ATOM     22  O   UNL     1      10.065  17.019 -18.898  1.00  0.00    -0.507 OA
ATOM     23  H   UNL     1      10.162  17.368 -17.958  1.00  0.00     0.293 HD
ENDBRANCH   6  22
BRANCH   8  24
ATOM     24  O   UNL     1       7.482  14.687 -22.184  1.00  0.00    -0.508 OA
ATOM     25  H   UNL     1       6.765  14.011 -22.419  1.00  0.00     0.293 HD
ENDBRANCH   8  24
TORSDOF 5
ENDMDL
MODEL 3
REMARK VINA RESULT:    -6.577      3.465      6.209
REMARK INTER + INTRA:          -8.012
REMARK INTER:                  -7.787
REMARK INTRA:                  -0.224
REMARK UNBOUND:                -0.281
REMARK SMILES O=c1c(O)c(-c2ccc(O)cc2)oc2cc(O)cc(O)c12
REMARK SMILES IDX 5 1 3 2 2 3 1 4 21 5 19 6 18 7 16 8 15 9 14 10 13 11 6 12
REMARK SMILES IDX 7 13 8 14 9 15 12 16 11 17 10 18 4 20 20 22 17 24
REMARK H PARENT 10 19 4 21 20 23 17 25
REMARK Flexibility Score: inf
ROOT
ATOM      1  C   UNL     1       8.197  16.112 -18.692  1.00  0.00     0.180 A 
ATOM      2  C   UNL     1       8.206  15.777 -20.057  1.00  0.00     0.208 A 
ATOM      3  C   UNL     1       8.497  14.455 -20.432  1.00  0.00     0.238 A 
ATOM      4  O   UNL     1       8.450  14.148 -21.652  1.00  0.00    -0.285 OA
ATOM      5  C   UNL     1       8.789  13.489 -19.439  1.00  0.00     0.111 A 
ATOM      6  C   UNL     1       9.136  12.130 -19.706  1.00  0.00     0.134 A 
ATOM      7  C   UNL     1       9.277  11.232 -18.642  1.00  0.00     0.093 A 
ATOM      8  C   UNL     1       9.148  11.654 -17.320  1.00  0.00     0.123 A 
ATOM      9  C   UNL     1       8.867  12.994 -17.045  1.00  0.00     0.094 A 
ATOM     10  C   UNL     1       8.686  13.907 -18.085  1.00  0.00     0.146 A 
ATOM     11  O   UNL     1       8.410  15.169 -17.781  1.00  0.00    -0.452 OA
ENDROOT
BRANCH   1  12
ATOM     12  C   UNL     1       7.924  17.489 -18.221  1.00  0.00     0.021 A 
ATOM     13  C   UNL     1       6.729  17.761 -17.534  1.00  0.00     0.016 A 
ATOM     14  C   UNL     1       6.462  19.049 -17.060  1.00  0.00     0.047 A 
ATOM     15  C   UNL     1       7.390  20.076 -17.253  1.00  0.00     0.115 A 
ATOM     16  C   UNL     1       8.863  18.522 -18.394  1.00  0.00     0.016 A 
ATOM     17  C   UNL     1       8.593  19.809 -17.919  1.00  0.00     0.047 A 
BRANCH  15  18
ATOM     18  O   UNL     1       7.110  21.355 -16.777  1.00  0.00    -0.508 OA
ATOM     19  H   UNL     1       6.893  21.522 -15.800  1.00  0.00     0.293 HD
ENDBRANCH  15  18
ENDBRANCH   1  12
BRANCH   2  20
ATOM     20  O   UNL     1       7.893  16.740 -21.020  1.00  0.00    -0.502 OA
ATOM     21  H   UNL     1       8.083  17.726 -20.885  1.00  0.00     0.293 HD
ENDBRANCH   2  20
BRANCH   6  22
ATOM     22  O   UNL     1       9.379  11.625 -20.987  1.00  0.00    -0.507 OA
ATOM     23  H   UNL     1       9.987  10.848 -21.192  1.00  0.00     0.293 HD
ENDBRANCH   6  22
BRANCH   8  24
ATOM     24  O   UNL     1       9.310  10.736 -16.285  1.00  0.00    -0.508 OA
ATOM     25  H   UNL     1       9.060   9.761 -16.397  1.00  0.00     0.293 HD
ENDBRANCH   8  24
TORSDOF 5
ENDMDL
MODEL 4
REMARK VINA RESULT:    -6.351      2.429      3.416
REMARK INTER + INTRA:          -7.746
REMARK INTER:                  -7.959
REMARK INTRA:                   0.213
REMARK UNBOUND:                -0.281
REMARK SMILES O=c1c(O)c(-c2ccc(O)cc2)oc2cc(O)cc(O)c12
REMARK SMILES IDX 5 1 3 2 2 3 1 4 21 5 19 6 18 7 16 8 15 9 14 10 13 11 6 12
REMARK SMILES IDX 7 13 8 14 9 15 12 16 11 17 10 18 4 20 20 22 17 24
REMARK H PARENT 10 19 4 21 20 23 17 25
REMARK Flexibility Score: inf
ROOT
ATOM      1  C   UNL     1       8.774  13.109 -18.524  1.00  0.00     0.180 A 
ATOM      2  C   UNL     1       9.212  11.793 -18.755  1.00  0.00     0.208 A 
ATOM      3  C   UNL     1       9.276  10.897 -17.675  1.00  0.00     0.238 A 
ATOM      4  O   UNL     1       9.618   9.707 -17.898  1.00  0.00    -0.285 OA
ATOM      5  C   UNL     1       8.916  11.332 -16.377  1.00  0.00     0.111 A 
ATOM      6  C   UNL     1       8.981  10.521 -15.204  1.00  0.00     0.134 A 
ATOM      7  C   UNL     1       8.476  11.014 -13.995  1.00  0.00     0.093 A 
ATOM      8  C   UNL     1       7.969  12.310 -13.901  1.00  0.00     0.123 A 
ATOM      9  C   UNL     1       7.956  13.132 -15.029  1.00  0.00     0.094 A 
ATOM     10  C   UNL     1       8.419  12.656 -16.257  1.00  0.00     0.146 A 
ATOM     11  O   UNL     1       8.380  13.467 -17.307  1.00  0.00    -0.452 OA
ENDROOT
BRANCH   1  12
ATOM     12  C   UNL     1       8.703  14.117 -19.606  1.00  0.00     0.021 A 
ATOM     13  C   UNL     1       8.216  13.742 -20.870  1.00  0.00     0.016 A 
ATOM     14  C   UNL     1       8.119  14.683 -21.899  1.00  0.00     0.047 A 
ATOM     15  C   UNL     1       8.492  16.011 -21.676  1.00  0.00     0.115 A 
ATOM     16  C   UNL     1       9.058  15.459 -19.382  1.00  0.00     0.016 A 
ATOM     17  C   UNL     1       8.960  16.398 -20.413  1.00  0.00     0.047 A 
BRANCH  15  18
ATOM     18  O   UNL     1       8.391  16.938 -22.711  1.00  0.00    -0.508 OA
ATOM     19  H   UNL     1       7.681  16.856 -23.430  1.00  0.00     0.293 HD
ENDBRANCH  15  18
ENDBRANCH   1  12
BRANCH   2  20
ATOM     20  O   UNL     1       9.542  11.378 -20.049  1.00  0.00    -0.502 OA
ATOM     21  H   UNL     1       9.608  10.401 -20.306  1.00  0.00     0.293 HD
ENDBRANCH   2  20
BRANCH   6  22
ATOM     22  O   UNL     1       9.552   9.245 -15.168  1.00  0.00    -0.507 OA
ATOM     23  H   UNL     1      10.543   9.059 -15.183  1.00  0.00     0.293 HD
ENDBRANCH   6  22
BRANCH   8  24
ATOM     24  O   UNL     1       7.489  12.774 -12.678  1.00  0.00    -0.508 OA
ATOM     25  H   UNL     1       7.884  12.460 -11.800  1.00  0.00     0.293 HD
ENDBRANCH   8  24
TORSDOF 5
ENDMDL
MODEL 5
REMARK VINA RESULT:    -6.269      1.738      3.360
REMARK INTER + INTRA:          -7.649
REMARK INTER:                  -7.394
REMARK INTRA:                  -0.256
REMARK UNBOUND:                -0.281
REMARK SMILES O=c1c(O)c(-c2ccc(O)cc2)oc2cc(O)cc(O)c12
REMARK SMILES IDX 5 1 3 2 2 3 1 4 21 5 19 6 18 7 16 8 15 9 14 10 13 11 6 12
REMARK SMILES IDX 7 13 8 14 9 15 12 16 11 17 10 18 4 20 20 22 17 24
REMARK H PARENT 10 19 4 21 20 23 17 25
REMARK Flexibility Score: inf
ROOT
ATOM      1  C   UNL     1       8.278  11.095 -14.729  1.00  0.00     0.180 A 
ATOM      2  C   UNL     1       7.895  11.044 -13.377  1.00  0.00     0.208 A 
ATOM      3  C   UNL     1       7.320   9.864 -12.876  1.00  0.00     0.238 A 
ATOM      4  O   UNL     1       7.030   9.807 -11.653  1.00  0.00    -0.285 OA
ATOM      5  C   UNL     1       7.121   8.758 -13.736  1.00  0.00     0.111 A 
ATOM      6  C   UNL     1       6.511   7.527 -13.345  1.00  0.00     0.134 A 
ATOM      7  C   UNL     1       6.485   6.454 -14.244  1.00  0.00     0.093 A 
ATOM      8  C   UNL     1       6.986   6.586 -15.538  1.00  0.00     0.123 A 
ATOM      9  C   UNL     1       7.531   7.803 -15.950  1.00  0.00     0.094 A 
ATOM     10  C   UNL     1       7.605   8.881 -15.065  1.00  0.00     0.146 A 
ATOM     11  O   UNL     1       8.139  10.017 -15.493  1.00  0.00    -0.452 OA
ENDROOT
BRANCH   1  12
ATOM     12  C   UNL     1       8.867  12.310 -15.335  1.00  0.00     0.021 A 
ATOM     13  C   UNL     1      10.241  12.340 -15.628  1.00  0.00     0.016 A 
ATOM     14  C   UNL     1      10.814  13.469 -16.222  1.00  0.00     0.047 A 
ATOM     15  C   UNL     1      10.021  14.574 -16.544  1.00  0.00     0.115 A 
ATOM     16  C   UNL     1       8.071  13.417 -15.681  1.00  0.00     0.016 A 
ATOM     17  C   UNL     1       8.647  14.544 -16.274  1.00  0.00     0.047 A 
BRANCH  15  18
ATOM     18  O   UNL     1      10.605  15.692 -17.135  1.00  0.00    -0.508 OA
ATOM     19  H   UNL     1      11.457  16.102 -16.768  1.00  0.00     0.293 HD
ENDBRANCH  15  18
ENDBRANCH   1  12
BRANCH   2  20
ATOM     20  O   UNL     1       8.121  12.140 -12.540  1.00  0.00    -0.502 OA
ATOM     21  H   UNL     1       8.953  12.227 -11.969  1.00  0.00     0.293 HD
ENDBRANCH   2  20
BRANCH   6  22
ATOM     22  O   UNL     1       5.897   7.319 -12.106  1.00  0.00    -0.507 OA
ATOM     23  H   UNL     1       6.001   7.923 -11.306  1.00  0.00     0.293 HD
ENDBRANCH   6  22
BRANCH   8  24
ATOM     24  O   UNL     1       6.929   5.501 -16.411  1.00  0.00    -0.508 OA
ATOM     25  H   UNL     1       7.744   5.194 -16.929  1.00  0.00     0.293 HD
ENDBRANCH   8  24
TORSDOF 5
ENDMDL
MODEL 6
REMARK VINA RESULT:    -6.239      2.559      7.425
REMARK INTER + INTRA:          -7.614
REMARK INTER:                  -7.316
REMARK INTRA:                  -0.299
REMARK UNBOUND:                -0.281
REMARK SMILES O=c1c(O)c(-c2ccc(O)cc2)oc2cc(O)cc(O)c12
REMARK SMILES IDX 5 1 3 2 2 3 1 4 21 5 19 6 18 7 16 8 15 9 14 10 13 11 6 12
REMARK SMILES IDX 7 13 8 14 9 15 12 16 11 17 10 18 4 20 20 22 17 24
REMARK H PARENT 10 19 4 21 20 23 17 25
REMARK Flexibility Score: inf
ROOT
ATOM      1  C   UNL     1       8.862  12.936 -18.202  1.00  0.00     0.180 A 
ATOM      2  C   UNL     1       8.862  12.830 -19.605  1.00  0.00     0.208 A 
ATOM      3  C   UNL     1       8.654  13.986 -20.374  1.00  0.00     0.238 A 
ATOM      4  O   UNL     1       8.709  13.895 -21.628  1.00  0.00    -0.285 OA
ATOM      5  C   UNL     1       8.432  15.229 -19.734  1.00  0.00     0.111 A 
ATOM      6  C   UNL     1       8.170  16.456 -20.414  1.00  0.00     0.134 A 
ATOM      7  C   UNL     1       8.096  17.648 -19.684  1.00  0.00     0.093 A 
ATOM      8  C   UNL     1       8.209  17.650 -18.295  1.00  0.00     0.123 A 
ATOM      9  C   UNL     1       8.406  16.448 -17.614  1.00  0.00     0.094 A 
ATOM     10  C   UNL     1       8.520  15.247 -18.317  1.00  0.00     0.146 A 
ATOM     11  O   UNL     1       8.717  14.127 -17.632  1.00  0.00    -0.452 OA
ENDROOT
BRANCH   1  12
ATOM     12  C   UNL     1       9.050  11.759 -17.324  1.00  0.00     0.021 A 
ATOM     13  C   UNL     1      10.331  11.463 -16.830  1.00  0.00     0.016 A 
ATOM     14  C   UNL     1      10.527  10.370 -15.980  1.00  0.00     0.047 A 
ATOM     15  C   UNL     1       9.446   9.570 -15.601  1.00  0.00     0.115 A 
ATOM     16  C   UNL     1       7.962  10.963 -16.923  1.00  0.00     0.016 A 
ATOM     17  C   UNL     1       8.161   9.870 -16.073  1.00  0.00     0.047 A 
BRANCH  15  18
ATOM     18  O   UNL     1       9.656   8.484 -14.755  1.00  0.00    -0.508 OA
ATOM     19  H   UNL     1      10.579   8.086 -14.621  1.00  0.00     0.293 HD
ENDBRANCH  15  18
ENDBRANCH   1  12
BRANCH   2  20
ATOM     20  O   UNL     1       9.105  11.598 -20.217  1.00  0.00    -0.502 OA
ATOM     21  H   UNL     1       9.788  10.939 -19.862  1.00  0.00     0.293 HD
ENDBRANCH   2  20
BRANCH   6  22
ATOM     22  O   UNL     1       7.950  16.553 -21.792  1.00  0.00    -0.507 OA
ATOM     23  H   UNL     1       7.636  17.385 -22.266  1.00  0.00     0.293 HD
ENDBRANCH   6  22
BRANCH   8  24
ATOM     24  O   UNL     1       8.115  18.853 -17.598  1.00  0.00    -0.508 OA
ATOM     25  H   UNL     1       8.920  19.453 -17.464  1.00  0.00     0.293 HD
ENDBRANCH   8  24
TORSDOF 5
ENDMDL
MODEL 7
REMARK VINA RESULT:    -6.096      2.120      7.038
REMARK INTER + INTRA:          -7.446
REMARK INTER:                  -7.174
REMARK INTRA:                  -0.272
REMARK UNBOUND:                -0.281
REMARK SMILES O=c1c(O)c(-c2ccc(O)cc2)oc2cc(O)cc(O)c12
REMARK SMILES IDX 5 1 3 2 2 3 1 4 21 5 19 6 18 7 16 8 15 9 14 10 13 11 6 12
REMARK SMILES IDX 7 13 8 14 9 15 12 16 11 17 10 18 4 20 20 22 17 24
REMARK H PARENT 10 19 4 21 20 23 17 25
REMARK Flexibility Score: inf
ROOT
ATOM      1  C   UNL     1       7.841   9.680 -15.099  1.00  0.00     0.180 A 
ATOM      2  C   UNL     1       7.836  10.411 -13.898  1.00  0.00     0.208 A 
ATOM      3  C   UNL     1       8.203  11.766 -13.924  1.00  0.00     0.238 A 
ATOM      4  O   UNL     1       8.144  12.428 -12.856  1.00  0.00    -0.285 OA
ATOM      5  C   UNL     1       8.586  12.368 -15.146  1.00  0.00     0.111 A 
ATOM      6  C   UNL     1       9.016  13.723 -15.283  1.00  0.00     0.134 A 
ATOM      7  C   UNL     1       9.245  14.249 -16.560  1.00  0.00     0.093 A 
ATOM      8  C   UNL     1       9.124  13.454 -17.699  1.00  0.00     0.123 A 
ATOM      9  C   UNL     1       8.763  12.112 -17.573  1.00  0.00     0.094 A 
ATOM     10  C   UNL     1       8.492  11.568 -16.315  1.00  0.00     0.146 A 
ATOM     11  O   UNL     1       8.141  10.290 -16.240  1.00  0.00    -0.452 OA
ENDROOT
BRANCH   1  12
ATOM     12  C   UNL     1       7.490   8.242 -15.147  1.00  0.00     0.021 A 
ATOM     13  C   UNL     1       8.457   7.282 -14.805  1.00  0.00     0.016 A 
ATOM     14  C   UNL     1       8.140   5.920 -14.821  1.00  0.00     0.047 A 
ATOM     15  C   UNL     1       6.852   5.502 -15.163  1.00  0.00     0.115 A 
ATOM     16  C   UNL     1       6.189   7.816 -15.470  1.00  0.00     0.016 A 
ATOM     17  C   UNL     1       5.875   6.453 -15.486  1.00  0.00     0.047 A 
BRANCH  15  18
ATOM     18  O   UNL     1       6.550   4.142 -15.176  1.00  0.00    -0.508 OA
ATOM     19  H   UNL     1       6.820   3.531 -14.413  1.00  0.00     0.293 HD
ENDBRANCH  15  18
ENDBRANCH   1  12
BRANCH   2  20
ATOM     20  O   UNL     1       7.433   9.802 -12.706  1.00  0.00    -0.502 OA
ATOM     21  H   UNL     1       6.997   8.888 -12.682  1.00  0.00     0.293 HD
ENDBRANCH   2  20
BRANCH   6  22
ATOM     22  O   UNL     1       9.257  14.578 -14.203  1.00  0.00    -0.507 OA
ATOM     23  H   UNL     1       8.611  15.275 -13.867  1.00  0.00     0.293 HD
ENDBRANCH   6  22
BRANCH   8  24
ATOM     24  O   UNL     1       9.376  14.007 -18.953  1.00  0.00    -0.508 OA
ATOM     25  H   UNL     1       9.240  14.994 -19.135  1.00  0.00     0.293 HD
ENDBRANCH   8  24
TORSDOF 5
ENDMDL
MODEL 8
REMARK VINA RESULT:    -6.067      2.242      7.021
REMARK INTER + INTRA:          -7.412
REMARK INTER:                  -7.153
REMARK INTRA:                  -0.259
REMARK UNBOUND:                -0.281
REMARK SMILES O=c1c(O)c(-c2ccc(O)cc2)oc2cc(O)cc(O)c12
REMARK SMILES IDX 5 1 3 2 2 3 1 4 21 5 19 6 18 7 16 8 15 9 14 10 13 11 6 12
REMARK SMILES IDX 7 13 8 14 9 15 12 16 11 17 10 18 4 20 20 22 17 24
REMARK H PARENT 10 19 4 21 20 23 17 25
REMARK Flexibility Score: inf
ROOT
ATOM      1  C   UNL     1       8.461  11.612 -17.341  1.00  0.00     0.180 A 
ATOM      2  C   UNL     1       7.835  11.282 -18.556  1.00  0.00     0.208 A 
ATOM      3  C   UNL     1       7.735  12.260 -19.559  1.00  0.00     0.238 A 
ATOM      4  O   UNL     1       7.222  11.943 -20.663  1.00  0.00    -0.285 OA
ATOM      5  C   UNL     1       8.249  13.559 -19.330  1.00  0.00     0.111 A 
ATOM      6  C   UNL     1       8.167  14.639 -20.259  1.00  0.00     0.134 A 
ATOM      7  C   UNL     1       8.825  15.842 -19.979  1.00  0.00     0.093 A 
ATOM      8  C   UNL     1       9.506  16.029 -18.777  1.00  0.00     0.123 A 
ATOM      9  C   UNL     1       9.542  15.000 -17.834  1.00  0.00     0.094 A 
ATOM     10  C   UNL     1       8.926  13.775 -18.100  1.00  0.00     0.146 A 
ATOM     11  O   UNL     1       8.992  12.820 -17.182  1.00  0.00    -0.452 OA
ENDROOT
BRANCH   1  12
ATOM     12  C   UNL     1       8.582  10.643 -16.229  1.00  0.00     0.021 A 
ATOM     13  C   UNL     1       7.648  10.674 -15.180  1.00  0.00     0.016 A 
ATOM     14  C   UNL     1       7.730   9.753 -14.131  1.00  0.00     0.047 A 
ATOM     15  C   UNL     1       8.734   8.782 -14.124  1.00  0.00     0.115 A 
ATOM     16  C   UNL     1       9.579   9.650 -16.227  1.00  0.00     0.016 A 
ATOM     17  C   UNL     1       9.658   8.731 -15.176  1.00  0.00     0.047 A 
BRANCH  15  18
ATOM     18  O   UNL     1       8.804   7.871 -13.072  1.00  0.00    -0.508 OA
ATOM     19  H   UNL     1       8.048   7.773 -12.404  1.00  0.00     0.293 HD
ENDBRANCH  15  18
ENDBRANCH   1  12
BRANCH   2  20
ATOM     20  O   UNL     1       7.354   9.987 -18.770  1.00  0.00    -0.502 OA
ATOM     21  H   UNL     1       6.798   9.740 -19.579  1.00  0.00     0.293 HD
ENDBRANCH   2  20
BRANCH   6  22
ATOM     22  O   UNL     1       7.436  14.590 -21.450  1.00  0.00    -0.507 OA
ATOM     23  H   UNL     1       7.818  14.763 -22.366  1.00  0.00     0.293 HD
ENDBRANCH   6  22
BRANCH   8  24
ATOM     24  O   UNL     1      10.136  17.245 -18.524  1.00  0.00    -0.508 OA
ATOM     25  H   UNL     1      10.413  17.515 -17.588  1.00  0.00     0.293 HD
ENDBRANCH   8  24
TORSDOF 5
ENDMDL
MODEL 9
REMARK VINA RESULT:    -5.988      1.812      2.408
REMARK INTER + INTRA:          -7.319
REMARK INTER:                  -7.032
REMARK INTRA:                  -0.287
REMARK UNBOUND:                -0.281
REMARK SMILES O=c1c(O)c(-c2ccc(O)cc2)oc2cc(O)cc(O)c12
REMARK SMILES IDX 5 1 3 2 2 3 1 4 21 5 19 6 18 7 16 8 15 9 14 10 13 11 6 12
REMARK SMILES IDX 7 13 8 14 9 15 12 16 11 17 10 18 4 20 20 22 17 24
REMARK H PARENT 10 19 4 21 20 23 17 25
REMARK Flexibility Score: inf
ROOT
ATOM      1  C   UNL     1       8.304  11.591 -17.486  1.00  0.00     0.180 A 
ATOM      2  C   UNL     1       9.238  10.549 -17.627  1.00  0.00     0.208 A 
ATOM      3  C   UNL     1       9.368   9.607 -16.594  1.00  0.00     0.238 A 
ATOM      4  O   UNL     1      10.166   8.647 -16.750  1.00  0.00    -0.285 OA
ATOM      5  C   UNL     1       8.573   9.725 -15.429  1.00  0.00     0.111 A 
ATOM      6  C   UNL     1       8.650   8.850 -14.303  1.00  0.00     0.134 A 
ATOM      7  C   UNL     1       7.725   8.984 -13.261  1.00  0.00     0.093 A 
ATOM      8  C   UNL     1       6.770  10.000 -13.271  1.00  0.00     0.123 A 
ATOM      9  C   UNL     1       6.724  10.898 -14.338  1.00  0.00     0.094 A 
ATOM     10  C   UNL     1       7.610  10.768 -15.410  1.00  0.00     0.146 A 
ATOM     11  O   UNL     1       7.527  11.637 -16.410  1.00  0.00    -0.452 OA
ENDROOT
BRANCH   1  12
ATOM     12  C   UNL     1       8.128  12.636 -18.520  1.00  0.00     0.021 A 
ATOM     13  C   UNL     1       8.956  13.771 -18.505  1.00  0.00     0.016 A 
ATOM     14  C   UNL     1       8.822  14.758 -19.486  1.00  0.00     0.047 A 
ATOM     15  C   UNL     1       7.873  14.618 -20.501  1.00  0.00     0.115 A 
ATOM     16  C   UNL     1       7.188  12.490 -19.557  1.00  0.00     0.016 A 
ATOM     17  C   UNL     1       7.057  13.480 -20.536  1.00  0.00     0.047 A 
BRANCH  15  18
ATOM     18  O   UNL     1       7.750  15.610 -21.471  1.00  0.00    -0.508 OA
ATOM     19  H   UNL     1       6.909  15.704 -22.030  1.00  0.00     0.293 HD
ENDBRANCH  15  18
ENDBRANCH   1  12
BRANCH   2  20
ATOM     20  O   UNL     1       9.997  10.438 -18.796  1.00  0.00    -0.502 OA
ATOM     21  H   UNL     1      10.932  10.818 -18.876  1.00  0.00     0.293 HD
ENDBRANCH   2  20
BRANCH   6  22
ATOM     22  O   UNL     1       9.624   7.859 -14.150  1.00  0.00    -0.507 OA
ATOM     23  H   UNL     1       9.430   6.884 -13.987  1.00  0.00     0.293 HD
ENDBRANCH   6  22
BRANCH   8  24
ATOM     24  O   UNL     1       5.875  10.113 -12.209  1.00  0.00    -0.508 OA
ATOM     25  H   UNL     1       5.261   9.351 -11.948  1.00  0.00     0.293 HD
ENDBRANCH   8  24
TORSDOF 5
ENDMDL
