MODEL 1
REMARK VINA RESULT:    -7.458      0.000      0.000
REMARK INTER + INTRA:          -9.035
REMARK INTER:                  -8.766
REMARK INTRA:                  -0.269
REMARK UNBOUND:                -0.269
REMARK SMILES O=c1cc(-c2ccc(O)c(O)c2)oc2cc(O)cc(O)c12
REMARK SMILES IDX 4 1 3 2 2 3 1 4 21 5 19 6 18 7 16 8 15 9 14 10 13 11 5 12
REMARK SMILES IDX 6 13 7 14 8 15 12 16 10 17 9 18 11 20 20 22 17 24
REMARK H PARENT 9 19 11 21 20 23 17 25
REMARK Flexibility Score: inf
ROOT
ATOM      1  C   UNL     1       4.966 -35.899  43.888  1.00  0.00     0.138 A 
ATOM      2  C   UNL     1       6.024 -36.783  44.155  1.00  0.00     0.100 A 
ATOM      3  C   UNL     1       7.184 -36.301  44.765  1.00  0.00     0.197 A 
ATOM      4  O   UNL     1       8.128 -37.102  45.000  1.00  0.00    -0.289 OA
ATOM      5  C   UNL     1       7.277 -34.936  45.101  1.00  0.00     0.107 A 
ATOM      6  C   UNL     1       8.414 -34.367  45.722  1.00  0.00     0.134 A 
ATOM      7  C   UNL     1       8.432 -32.997  46.018  1.00  0.00     0.093 A 
ATOM      8  C   UNL     1       7.338 -32.186  45.707  1.00  0.00     0.123 A 
ATOM      9  C   UNL     1       6.210 -32.743  45.094  1.00  0.00     0.094 A 
ATOM     10  C   UNL     1       6.172 -34.107  44.790  1.00  0.00     0.146 A 
ATOM     11  O   UNL     1       5.089 -34.613  44.208  1.00  0.00    -0.456 OA
ENDROOT
BRANCH   1  12
ATOM     12  C   UNL     1       3.710 -36.355  43.240  1.00  0.00     0.021 A 
ATOM     13  C   UNL     1       3.644 -36.623  41.862  1.00  0.00     0.016 A 
ATOM     14  C   UNL     1       2.451 -37.059  41.282  1.00  0.00     0.051 A 
ATOM     15  C   UNL     1       1.303 -37.247  42.060  1.00  0.00     0.157 A 
ATOM     16  C   UNL     1       2.561 -36.557  44.025  1.00  0.00     0.062 A 
ATOM     17  C   UNL     1       1.360 -36.995  43.451  1.00  0.00     0.158 A 
BRANCH  15  18
ATOM     18  O   UNL     1       0.143 -37.683  41.418  1.00  0.00    -0.504 OA
ATOM     19  H   UNL     1      -0.382 -38.499  41.695  1.00  0.00     0.293 HD
ENDBRANCH  15  18
BRANCH  17  20
ATOM     20  O   UNL     1       0.259 -37.163  44.293  1.00  0.00    -0.504 OA
ATOM     21  H   UNL     1      -0.685 -36.906  44.046  1.00  0.00     0.293 HD
ENDBRANCH  17  20
ENDBRANCH   1  12
BRANCH   6  22
ATOM     22  O   UNL     1       9.523 -35.152  46.044  1.00  0.00    -0.507 OA
ATOM     23  H   UNL     1      10.399 -34.738  46.342  1.00  0.00     0.293 HD
ENDBRANCH   6  22
BRANCH   8  24
ATOM     24  O   UNL     1       7.380 -30.828  46.012  1.00  0.00    -0.508 OA
ATOM     25  H   UNL     1       7.361 -30.120  45.286  1.00  0.00     0.293 HD
ENDBRANCH   8  24
TORSDOF 5
ENDMDL
MODEL 2
REMARK VINA RESULT:    -7.242      1.971      6.807
REMARK INTER + INTRA:          -8.781
REMARK INTER:                  -8.500
REMARK INTRA:                  -0.281
REMARK UNBOUND:                -0.269
REMARK SMILES O=c1cc(-c2ccc(O)c(O)c2)oc2cc(O)cc(O)c12
REMARK SMILES IDX 4 1 3 2 2 3 1 4 21 5 19 6 18 7 16 8 15 9 14 10 13 11 5 12
REMARK SMILES IDX 6 13 7 14 8 15 12 16 10 17 9 18 11 20 20 22 17 24
REMARK H PARENT 9 19 11 21 20 23 17 25
REMARK Flexibility Score: inf
ROOT
ATOM      1  C   UNL     1       7.235 -33.935  44.819  1.00  0.00     0.138 A 
ATOM      2  C   UNL     1       7.986 -35.118  44.916  1.00  0.00     0.100 A 
ATOM      3  C   UNL     1       7.327 -36.349  44.937  1.00  0.00     0.197 A 
ATOM      4  O   UNL     1       8.010 -37.405  45.025  1.00  0.00    -0.289 OA
ATOM      5  C   UNL     1       5.921 -36.386  44.864  1.00  0.00     0.107 A 
ATOM      6  C   UNL     1       5.176 -37.591  44.878  1.00  0.00     0.134 A 
ATOM      7  C   UNL     1       3.777 -37.543  44.809  1.00  0.00     0.093 A 
ATOM      8  C   UNL     1       3.109 -36.319  44.726  1.00  0.00     0.123 A 
ATOM      9  C   UNL     1       3.839 -35.126  44.711  1.00  0.00     0.094 A 
ATOM     10  C   UNL     1       5.235 -35.151  44.779  1.00  0.00     0.146 A 
ATOM     11  O   UNL     1       5.907 -34.005  44.762  1.00  0.00    -0.456 OA
ENDROOT
BRANCH   1  12
ATOM     12  C   UNL     1       7.881 -32.598  44.793  1.00  0.00     0.021 A 
ATOM     13  C   UNL     1       8.807 -32.244  43.798  1.00  0.00     0.016 A 
ATOM     14  C   UNL     1       9.391 -30.976  43.794  1.00  0.00     0.051 A 
ATOM     15  C   UNL     1       9.061 -30.032  44.772  1.00  0.00     0.157 A 
ATOM     16  C   UNL     1       7.537 -31.645  45.768  1.00  0.00     0.062 A 
ATOM     17  C   UNL     1       8.119 -30.371  45.772  1.00  0.00     0.158 A 
BRANCH  15  18
ATOM     18  O   UNL     1       9.682 -28.783  44.713  1.00  0.00    -0.504 OA
ATOM     19  H   UNL     1      10.197 -28.447  43.912  1.00  0.00     0.293 HD
ENDBRANCH  15  18
BRANCH  17  20
ATOM     20  O   UNL     1       7.735 -29.482  46.778  1.00  0.00    -0.504 OA
ATOM     21  H   UNL     1       8.067 -29.529  47.730  1.00  0.00     0.293 HD
ENDBRANCH  17  20
ENDBRANCH   1  12
BRANCH   6  22
ATOM     22  O   UNL     1       5.817 -38.828  44.961  1.00  0.00    -0.507 OA
ATOM     23  H   UNL     1       5.333 -39.693  44.748  1.00  0.00     0.293 HD
ENDBRANCH   6  22
BRANCH   8  24
ATOM     24  O   UNL     1       1.717 -36.299  44.658  1.00  0.00    -0.508 OA
ATOM     25  H   UNL     1       1.231 -36.001  43.820  1.00  0.00     0.293 HD
ENDBRANCH   8  24
TORSDOF 5
ENDMDL
MODEL 3
REMARK VINA RESULT:    -7.095      1.732      7.620
REMARK INTER + INTRA:          -8.608
REMARK INTER:                  -8.344
REMARK INTRA:                  -0.264
REMARK UNBOUND:                -0.269
REMARK SMILES O=c1cc(-c2ccc(O)c(O)c2)oc2cc(O)cc(O)c12
REMARK SMILES IDX 4 1 3 2 2 3 1 4 21 5 19 6 18 7 16 8 15 9 14 10 13 11 5 12
REMARK SMILES IDX 6 13 7 14 8 15 12 16 10 17 9 18 11 20 20 22 17 24
REMARK H PARENT 9 19 11 21 20 23 17 25
REMARK Flexibility Score: inf
ROOT
ATOM      1  C   UNL     1       3.378 -36.513  42.950  1.00  0.00     0.138 A 
ATOM      2  C   UNL     1       2.255 -36.964  43.663  1.00  0.00     0.100 A 
ATOM      3  C   UNL     1       1.120 -37.381  42.964  1.00  0.00     0.197 A 
ATOM      4  O   UNL     1       0.117 -37.783  43.614  1.00  0.00    -0.289 OA
ATOM      5  C   UNL     1       1.116 -37.339  41.556  1.00  0.00     0.107 A 
ATOM      6  C   UNL     1       0.009 -37.744  40.772  1.00  0.00     0.134 A 
ATOM      7  C   UNL     1       0.082 -37.666  39.374  1.00  0.00     0.093 A 
ATOM      8  C   UNL     1       1.236 -37.194  38.746  1.00  0.00     0.123 A 
ATOM      9  C   UNL     1       2.334 -36.793  39.515  1.00  0.00     0.094 A 
ATOM     10  C   UNL     1       2.282 -36.863  40.910  1.00  0.00     0.146 A 
ATOM     11  O   UNL     1       3.338 -36.477  41.620  1.00  0.00    -0.456 OA
ENDROOT
BRANCH   1  12
ATOM     12  C   UNL     1       4.612 -36.057  43.639  1.00  0.00     0.021 A 
ATOM     13  C   UNL     1       4.784 -34.721  44.038  1.00  0.00     0.016 A 
ATOM     14  C   UNL     1       5.952 -34.324  44.693  1.00  0.00     0.051 A 
ATOM     15  C   UNL     1       6.965 -35.247  44.973  1.00  0.00     0.157 A 
ATOM     16  C   UNL     1       5.623 -36.988  43.933  1.00  0.00     0.062 A 
ATOM     17  C   UNL     1       6.797 -36.598  44.590  1.00  0.00     0.158 A 
BRANCH  15  18
ATOM     18  O   UNL     1       8.107 -34.783  45.629  1.00  0.00    -0.504 OA
ATOM     19  H   UNL     1       8.881 -35.372  45.897  1.00  0.00     0.293 HD
ENDBRANCH  15  18
BRANCH  17  20
ATOM     20  O   UNL     1       7.762 -37.577  44.839  1.00  0.00    -0.504 OA
ATOM     21  H   UNL     1       8.663 -37.609  44.385  1.00  0.00     0.293 HD
ENDBRANCH  17  20
ENDBRANCH   1  12
BRANCH   6  22
ATOM     22  O   UNL     1      -1.158 -38.220  41.372  1.00  0.00    -0.507 OA
ATOM     23  H   UNL     1      -1.262 -38.257  42.380  1.00  0.00     0.293 HD
ENDBRANCH   6  22
BRANCH   8  24
ATOM     24  O   UNL     1       1.283 -37.127  37.355  1.00  0.00    -0.508 OA
ATOM     25  H   UNL     1       0.838 -36.372  36.845  1.00  0.00     0.293 HD
ENDBRANCH   8  24
TORSDOF 5
ENDMDL
MODEL 4
REMARK VINA RESULT:    -6.775      2.784      3.782
REMARK INTER + INTRA:          -8.232
REMARK INTER:                  -7.934
REMARK INTRA:                  -0.298
REMARK UNBOUND:                -0.269
REMARK SMILES O=c1cc(-c2ccc(O)c(O)c2)oc2cc(O)cc(O)c12
REMARK SMILES IDX 4 1 3 2 2 3 1 4 21 5 19 6 18 7 16 8 15 9 14 10 13 11 5 12
REMARK SMILES IDX 6 13 7 14 8 15 12 16 10 17 9 18 11 20 20 22 17 24
REMARK H PARENT 9 19 11 21 20 23 17 25
REMARK Flexibility Score: inf
ROOT
ATOM      1  C   UNL     1       7.205 -34.568  44.343  1.00  0.00     0.138 A 
ATOM      2  C   UNL     1       8.045 -34.432  43.225  1.00  0.00     0.100 A 
ATOM      3  C   UNL     1       8.728 -33.231  43.022  1.00  0.00     0.197 A 
ATOM      4  O   UNL     1       9.478 -33.119  42.015  1.00  0.00    -0.289 OA
ATOM      5  C   UNL     1       8.563 -32.174  43.938  1.00  0.00     0.107 A 
ATOM      6  C   UNL     1       9.220 -30.927  43.807  1.00  0.00     0.134 A 
ATOM      7  C   UNL     1       8.998 -29.922  44.760  1.00  0.00     0.093 A 
ATOM      8  C   UNL     1       8.136 -30.139  45.837  1.00  0.00     0.123 A 
ATOM      9  C   UNL     1       7.485 -31.370  45.973  1.00  0.00     0.094 A 
ATOM     10  C   UNL     1       7.693 -32.385  45.034  1.00  0.00     0.146 A 
ATOM     11  O   UNL     1       7.064 -33.546  45.185  1.00  0.00    -0.456 OA
ENDROOT
BRANCH   1  12
ATOM     12  C   UNL     1       6.453 -35.821  44.609  1.00  0.00     0.021 A 
ATOM     13  C   UNL     1       7.040 -37.086  44.435  1.00  0.00     0.016 A 
ATOM     14  C   UNL     1       6.310 -38.246  44.702  1.00  0.00     0.051 A 
ATOM     15  C   UNL     1       4.989 -38.173  45.156  1.00  0.00     0.157 A 
ATOM     16  C   UNL     1       5.130 -35.746  45.079  1.00  0.00     0.062 A 
ATOM     17  C   UNL     1       4.392 -36.905  45.349  1.00  0.00     0.158 A 
BRANCH  15  18
ATOM     18  O   UNL     1       4.316 -39.371  45.402  1.00  0.00    -0.504 OA
ATOM     19  H   UNL     1       3.332 -39.511  45.228  1.00  0.00     0.293 HD
ENDBRANCH  15  18
BRANCH  17  20
ATOM     20  O   UNL     1       3.080 -36.752  45.804  1.00  0.00    -0.504 OA
ATOM     21  H   UNL     1       2.758 -35.959  46.339  1.00  0.00     0.293 HD
ENDBRANCH  17  20
ENDBRANCH   1  12
BRANCH   6  22
ATOM     22  O   UNL     1      10.086 -30.681  42.741  1.00  0.00    -0.507 OA
ATOM     23  H   UNL     1      10.634 -29.830  42.685  1.00  0.00     0.293 HD
ENDBRANCH   6  22
BRANCH   8  24
ATOM     24  O   UNL     1       7.933 -29.124  46.770  1.00  0.00    -0.508 OA
ATOM     25  H   UNL     1       7.599 -28.207  46.492  1.00  0.00     0.293 HD
ENDBRANCH   8  24
TORSDOF 5
ENDMDL
MODEL 5
REMARK VINA RESULT:    -6.614      1.918      7.566
REMARK INTER + INTRA:          -8.043
REMARK INTER:                  -7.773
REMARK INTRA:                  -0.270
REMARK UNBOUND:                -0.269
REMARK SMILES O=c1cc(-c2ccc(O)c(O)c2)oc2cc(O)cc(O)c12
REMARK SMILES IDX 4 1 3 2 2 3 1 4 21 5 19 6 18 7 16 8 15 9 14 10 13 11 5 12
REMARK SMILES IDX 6 13 7 14 8 15 12 16 10 17 9 18 11 20 20 22 17 24
REMARK H PARENT 9 19 11 21 20 23 17 25
REMARK Flexibility Score: inf
ROOT
ATOM      1  C   UNL     1       4.075 -36.197  42.147  1.00  0.00     0.138 A 
ATOM      2  C   UNL     1       4.182 -35.980  40.763  1.00  0.00     0.100 A 
ATOM      3  C   UNL     1       3.103 -36.293  39.933  1.00  0.00     0.197 A 
ATOM      4  O   UNL     1       3.210 -36.095  38.693  1.00  0.00    -0.289 OA
ATOM      5  C   UNL     1       1.925 -36.823  40.495  1.00  0.00     0.107 A 
ATOM      6  C   UNL     1       0.787 -37.165  39.727  1.00  0.00     0.134 A 
ATOM      7  C   UNL     1      -0.346 -37.694  40.361  1.00  0.00     0.093 A 
ATOM      8  C   UNL     1      -0.363 -37.888  41.744  1.00  0.00     0.123 A 
ATOM      9  C   UNL     1       0.759 -37.551  42.509  1.00  0.00     0.094 A 
ATOM     10  C   UNL     1       1.898 -37.022  41.896  1.00  0.00     0.146 A 
ATOM     11  O   UNL     1       2.952 -36.709  42.644  1.00  0.00    -0.456 OA
ENDROOT
BRANCH   1  12
ATOM     12  C   UNL     1       5.190 -35.885  43.076  1.00  0.00     0.021 A 
ATOM     13  C   UNL     1       5.481 -34.566  43.465  1.00  0.00     0.016 A 
ATOM     14  C   UNL     1       6.530 -34.305  44.348  1.00  0.00     0.051 A 
ATOM     15  C   UNL     1       7.304 -35.347  44.870  1.00  0.00     0.157 A 
ATOM     16  C   UNL     1       5.958 -36.934  43.611  1.00  0.00     0.062 A 
ATOM     17  C   UNL     1       7.012 -36.680  44.498  1.00  0.00     0.158 A 
BRANCH  15  18
ATOM     18  O   UNL     1       8.339 -35.016  45.747  1.00  0.00    -0.504 OA
ATOM     19  H   UNL     1       9.280 -34.802  45.453  1.00  0.00     0.293 HD
ENDBRANCH  15  18
BRANCH  17  20
ATOM     20  O   UNL     1       7.737 -37.772  44.980  1.00  0.00    -0.504 OA
ATOM     21  H   UNL     1       8.629 -37.697  45.446  1.00  0.00     0.293 HD
ENDBRANCH  17  20
ENDBRANCH   1  12
BRANCH   6  22
ATOM     22  O   UNL     1       0.775 -36.983  38.343  1.00  0.00    -0.507 OA
ATOM     23  H   UNL     1       0.319 -36.186  37.915  1.00  0.00     0.293 HD
ENDBRANCH   6  22
BRANCH   8  24
ATOM     24  O   UNL     1      -1.502 -38.415  42.350  1.00  0.00    -0.508 OA
ATOM     25  H   UNL     1      -2.324 -38.662  41.810  1.00  0.00     0.293 HD
ENDBRANCH   8  24
TORSDOF 5
ENDMDL
MODEL 6
REMARK VINA RESULT:    -6.572      1.665      7.200
REMARK INTER + INTRA:          -7.994
REMARK INTER:                  -7.727
REMARK INTRA:                  -0.267
REMARK UNBOUND:                -0.269
REMARK SMILES O=c1cc(-c2ccc(O)c(O)c2)oc2cc(O)cc(O)c12
REMARK SMILES IDX 4 1 3 2 2 3 1 4 21 5 19 6 18 7 16 8 15 9 14 10 13 11 5 12
REMARK SMILES IDX 6 13 7 14 8 15 12 16 10 17 9 18 11 20 20 22 17 24
REMARK H PARENT 9 19 11 21 20 23 17 25
REMARK Flexibility Score: inf
ROOT
ATOM      1  C   UNL     1       4.776 -35.541  43.049  1.00  0.00     0.138 A 
ATOM      2  C   UNL     1       4.865 -35.373  41.657  1.00  0.00     0.100 A 
ATOM      3  C   UNL     1       3.854 -35.879  40.838  1.00  0.00     0.197 A 
ATOM      4  O   UNL     1       3.944 -35.724  39.590  1.00  0.00    -0.289 OA
ATOM      5  C   UNL     1       2.760 -36.552  41.419  1.00  0.00     0.107 A 
ATOM      6  C   UNL     1       1.693 -37.092  40.662  1.00  0.00     0.134 A 
ATOM      7  C   UNL     1       0.643 -37.753  41.315  1.00  0.00     0.093 A 
ATOM      8  C   UNL     1       0.640 -37.885  42.705  1.00  0.00     0.123 A 
ATOM      9  C   UNL     1       1.691 -37.353  43.459  1.00  0.00     0.094 A 
ATOM     10  C   UNL     1       2.747 -36.689  42.827  1.00  0.00     0.146 A 
ATOM     11  O   UNL     1       3.734 -36.191  43.565  1.00  0.00    -0.456 OA
ENDROOT
BRANCH   1  12
ATOM     12  C   UNL     1       5.822 -35.027  43.968  1.00  0.00     0.021 A 
ATOM     13  C   UNL     1       7.017 -35.730  44.196  1.00  0.00     0.016 A 
ATOM     14  C   UNL     1       7.987 -35.216  45.059  1.00  0.00     0.051 A 
ATOM     15  C   UNL     1       7.794 -33.990  45.705  1.00  0.00     0.157 A 
ATOM     16  C   UNL     1       5.634 -33.788  44.606  1.00  0.00     0.062 A 
ATOM     17  C   UNL     1       6.602 -33.265  45.473  1.00  0.00     0.158 A 
BRANCH  15  18
ATOM     18  O   UNL     1       8.802 -33.535  46.557  1.00  0.00    -0.504 OA
ATOM     19  H   UNL     1       9.321 -34.129  47.185  1.00  0.00     0.293 HD
ENDBRANCH  15  18
BRANCH  17  20
ATOM     20  O   UNL     1       6.339 -32.034  46.077  1.00  0.00    -0.504 OA
ATOM     21  H   UNL     1       5.459 -31.793  46.508  1.00  0.00     0.293 HD
ENDBRANCH  17  20
ENDBRANCH   1  12
BRANCH   6  22
ATOM     22  O   UNL     1       1.670 -36.976  39.271  1.00  0.00    -0.507 OA
ATOM     23  H   UNL     1       1.092 -37.579  38.696  1.00  0.00     0.293 HD
ENDBRANCH   6  22
BRANCH   8  24
ATOM     24  O   UNL     1      -0.415 -38.547  43.330  1.00  0.00    -0.508 OA
ATOM     25  H   UNL     1      -0.898 -38.144  44.125  1.00  0.00     0.293 HD
ENDBRANCH   8  24
TORSDOF 5
ENDMDL
MODEL 7
REMARK VINA RESULT:    -6.552      1.861      2.030
REMARK INTER + INTRA:          -7.970
REMARK INTER:                  -7.652
REMARK INTRA:                  -0.318
REMARK UNBOUND:                -0.269
REMARK SMILES O=c1cc(-c2ccc(O)c(O)c2)oc2cc(O)cc(O)c12
REMARK SMILES IDX 4 1 3 2 2 3 1 4 21 5 19 6 18 7 16 8 15 9 14 10 13 11 5 12
REMARK SMILES IDX 6 13 7 14 8 15 12 16 10 17 9 18 11 20 20 22 17 24
REMARK H PARENT 9 19 11 21 20 23 17 25
REMARK Flexibility Score: inf
ROOT
ATOM      1  C   UNL     1       4.614 -35.972  42.438  1.00  0.00     0.138 A 
ATOM      2  C   UNL     1       5.611 -36.039  41.450  1.00  0.00     0.100 A 
ATOM      3  C   UNL     1       6.871 -35.496  41.709  1.00  0.00     0.197 A 
ATOM      4  O   UNL     1       7.759 -35.560  40.816  1.00  0.00    -0.289 OA
ATOM      5  C   UNL     1       7.124 -34.887  42.954  1.00  0.00     0.107 A 
ATOM      6  C   UNL     1       8.372 -34.316  43.298  1.00  0.00     0.134 A 
ATOM      7  C   UNL     1       8.542 -33.723  44.557  1.00  0.00     0.093 A 
ATOM      8  C   UNL     1       7.491 -33.690  45.477  1.00  0.00     0.123 A 
ATOM      9  C   UNL     1       6.255 -34.255  45.144  1.00  0.00     0.094 A 
ATOM     10  C   UNL     1       6.065 -34.851  43.894  1.00  0.00     0.146 A 
ATOM     11  O   UNL     1       4.882 -35.382  43.600  1.00  0.00    -0.456 OA
ENDROOT
BRANCH   1  12
ATOM     12  C   UNL     1       3.256 -36.531  42.218  1.00  0.00     0.021 A 
ATOM     13  C   UNL     1       2.850 -37.015  40.962  1.00  0.00     0.016 A 
ATOM     14  C   UNL     1       1.570 -37.543  40.788  1.00  0.00     0.051 A 
ATOM     15  C   UNL     1       0.671 -37.610  41.858  1.00  0.00     0.157 A 
ATOM     16  C   UNL     1       2.358 -36.611  43.296  1.00  0.00     0.062 A 
ATOM     17  C   UNL     1       1.072 -37.140  43.130  1.00  0.00     0.158 A 
BRANCH  15  18
ATOM     18  O   UNL     1      -0.594 -38.148  41.615  1.00  0.00    -0.504 OA
ATOM     19  H   UNL     1      -1.114 -38.693  42.287  1.00  0.00     0.293 HD
ENDBRANCH  15  18
BRANCH  17  20
ATOM     20  O   UNL     1       0.233 -37.178  44.246  1.00  0.00    -0.504 OA
ATOM     21  H   UNL     1      -0.550 -36.556  44.385  1.00  0.00     0.293 HD
ENDBRANCH  17  20
ENDBRANCH   1  12
BRANCH   6  22
ATOM     22  O   UNL     1       9.440 -34.332  42.399  1.00  0.00    -0.507 OA
ATOM     23  H   UNL     1       9.958 -33.491  42.172  1.00  0.00     0.293 HD
ENDBRANCH   6  22
BRANCH   8  24
ATOM     24  O   UNL     1       7.686 -33.095  46.721  1.00  0.00    -0.508 OA
ATOM     25  H   UNL     1       8.558 -33.197  47.227  1.00  0.00     0.293 HD
ENDBRANCH   8  24
TORSDOF 5
ENDMDL
MODEL 8
REMARK VINA RESULT:    -6.497      3.550      6.606
REMARK INTER + INTRA:          -7.905
REMARK INTER:                  -7.620
REMARK INTRA:                  -0.286
REMARK UNBOUND:                -0.269
REMARK SMILES O=c1cc(-c2ccc(O)c(O)c2)oc2cc(O)cc(O)c12
REMARK SMILES IDX 4 1 3 2 2 3 1 4 21 5 19 6 18 7 16 8 15 9 14 10 13 11 5 12
REMARK SMILES IDX 6 13 7 14 8 15 12 16 10 17 9 18 11 20 20 22 17 24
REMARK H PARENT 9 19 11 21 20 23 17 25
REMARK Flexibility Score: inf
ROOT
ATOM      1  C   UNL     1       2.931 -37.348  39.955  1.00  0.00     0.138 A 
ATOM      2  C   UNL     1       1.571 -37.573  40.228  1.00  0.00     0.100 A 
ATOM      3  C   UNL     1       1.100 -37.429  41.534  1.00  0.00     0.197 A 
ATOM      4  O   UNL     1      -0.121 -37.634  41.769  1.00  0.00    -0.289 OA
ATOM      5  C   UNL     1       1.995 -37.064  42.560  1.00  0.00     0.107 A 
ATOM      6  C   UNL     1       1.600 -36.895  43.908  1.00  0.00     0.134 A 
ATOM      7  C   UNL     1       2.553 -36.537  44.872  1.00  0.00     0.093 A 
ATOM      8  C   UNL     1       3.889 -36.344  44.515  1.00  0.00     0.123 A 
ATOM      9  C   UNL     1       4.286 -36.508  43.183  1.00  0.00     0.094 A 
ATOM     10  C   UNL     1       3.351 -36.865  42.207  1.00  0.00     0.146 A 
ATOM     11  O   UNL     1       3.752 -37.014  40.948  1.00  0.00    -0.456 OA
ENDROOT
BRANCH   1  12
ATOM     12  C   UNL     1       3.488 -37.488  38.586  1.00  0.00     0.021 A 
ATOM     13  C   UNL     1       4.601 -36.741  38.161  1.00  0.00     0.016 A 
ATOM     14  C   UNL     1       5.108 -36.901  36.870  1.00  0.00     0.051 A 
ATOM     15  C   UNL     1       4.527 -37.810  35.979  1.00  0.00     0.157 A 
ATOM     16  C   UNL     1       2.913 -38.412  37.696  1.00  0.00     0.062 A 
ATOM     17  C   UNL     1       3.416 -38.578  36.399  1.00  0.00     0.158 A 
BRANCH  15  18
ATOM     18  O   UNL     1       5.082 -37.919  34.703  1.00  0.00    -0.504 OA
ATOM     19  H   UNL     1       4.715 -38.517  33.977  1.00  0.00     0.293 HD
ENDBRANCH  15  18
BRANCH  17  20
ATOM     20  O   UNL     1       2.786 -39.508  35.570  1.00  0.00    -0.504 OA
ATOM     21  H   UNL     1       1.805 -39.480  35.334  1.00  0.00     0.293 HD
ENDBRANCH  17  20
ENDBRANCH   1  12
BRANCH   6  22
ATOM     22  O   UNL     1       0.272 -37.083  44.295  1.00  0.00    -0.507 OA
ATOM     23  H   UNL     1       0.031 -37.500  45.187  1.00  0.00     0.293 HD
ENDBRANCH   6  22
BRANCH   8  24
ATOM     24  O   UNL     1       4.817 -35.987  45.491  1.00  0.00    -0.508 OA
ATOM     25  H   UNL     1       5.814 -36.017  45.312  1.00  0.00     0.293 HD
ENDBRANCH   8  24
TORSDOF 5
ENDMDL
MODEL 9
REMARK VINA RESULT:    -6.465      2.174      6.894
REMARK INTER + INTRA:          -7.868
REMARK INTER:                  -7.603
REMARK INTRA:                  -0.264
REMARK UNBOUND:                -0.269
REMARK SMILES O=c1cc(-c2ccc(O)c(O)c2)oc2cc(O)cc(O)c12
REMARK SMILES IDX 4 1 3 2 2 3 1 4 21 5 19 6 18 7 16 8 15 9 14 10 13 11 5 12
REMARK SMILES IDX 6 13 7 14 8 15 12 16 10 17 9 18 11 20 20 22 17 24
REMARK H PARENT 9 19 11 21 20 23 17 25
REMARK Flexibility Score: inf
ROOT
ATOM      1  C   UNL     1       6.181 -34.937  43.770  1.00  0.00     0.138 A 
ATOM      2  C   UNL     1       5.148 -34.922  42.818  1.00  0.00     0.100 A 
ATOM      3  C   UNL     1       4.422 -36.090  42.576  1.00  0.00     0.197 A 
ATOM      4  O   UNL     1       3.498 -36.068  41.719  1.00  0.00    -0.289 OA
ATOM      5  C   UNL     1       4.738 -37.265  43.286  1.00  0.00     0.107 A 
ATOM      6  C   UNL     1       4.052 -38.489  43.102  1.00  0.00     0.134 A 
ATOM      7  C   UNL     1       4.431 -39.617  43.844  1.00  0.00     0.093 A 
ATOM      8  C   UNL     1       5.479 -39.545  44.764  1.00  0.00     0.123 A 
ATOM      9  C   UNL     1       6.162 -38.338  44.951  1.00  0.00     0.094 A 
ATOM     10  C   UNL     1       5.799 -37.202  44.221  1.00  0.00     0.146 A 
ATOM     11  O   UNL     1       6.461 -36.066  44.417  1.00  0.00    -0.456 OA
ENDROOT
BRANCH   1  12
ATOM     12  C   UNL     1       6.987 -33.725  44.068  1.00  0.00     0.021 A 
ATOM     13  C   UNL     1       8.162 -33.426  43.357  1.00  0.00     0.016 A 
ATOM     14  C   UNL     1       8.894 -32.274  43.654  1.00  0.00     0.051 A 
ATOM     15  C   UNL     1       8.470 -31.394  44.655  1.00  0.00     0.157 A 
ATOM     16  C   UNL     1       6.553 -32.834  45.065  1.00  0.00     0.062 A 
ATOM     17  C   UNL     1       7.282 -31.677  45.368  1.00  0.00     0.158 A 
BRANCH  15  18
ATOM     18  O   UNL     1       9.249 -30.262  44.903  1.00  0.00    -0.504 OA
ATOM     19  H   UNL     1       8.870 -29.347  45.091  1.00  0.00     0.293 HD
ENDBRANCH  15  18
BRANCH  17  20
ATOM     20  O   UNL     1       6.792 -30.845  46.378  1.00  0.00    -0.504 OA
ATOM     21  H   UNL     1       6.345 -31.180  47.218  1.00  0.00     0.293 HD
ENDBRANCH  17  20
ENDBRANCH   1  12
BRANCH   6  22
ATOM     22  O   UNL     1       3.000 -38.592  42.190  1.00  0.00    -0.507 OA
ATOM     23  H   UNL     1       3.052 -39.206  41.385  1.00  0.00     0.293 HD
ENDBRANCH   6  22
BRANCH   8  24
ATOM     24  O   UNL     1       5.837 -40.680  45.489  1.00  0.00    -0.508 OA
ATOM     25  H   UNL     1       5.336 -41.555  45.385  1.00  0.00     0.293 HD
ENDBRANCH   8  24
TORSDOF 5
ENDMDL
