MODEL 1
REMARK VINA RESULT:    -5.719      0.000      0.000
REMARK INTER + INTRA:          -5.887
REMARK INTER:                  -5.887
REMARK INTRA:                   0.000
REMARK UNBOUND:                 0.000
REMARK SMILES O=c1ccc2ccc(O)cc2o1
REMARK SMILES IDX 6 1 7 2 8 3 10 4 11 5 5 6 4 7 3 8 2 9 1 10 12 11 9 12
REMARK H PARENT 9 13
REMARK Flexibility Score: inf
ROOT
ATOM      1  C   UNL     1      13.614 -16.769   6.787  1.00  0.00     0.016 A 
ATOM      2  C   UNL     1      14.547 -15.728   6.772  1.00  0.00     0.047 A 
ATOM      3  C   UNL     1      14.188 -14.447   7.216  1.00  0.00     0.119 A 
ATOM      4  C   UNL     1      12.887 -14.207   7.676  1.00  0.00     0.094 A 
ATOM      5  C   UNL     1      11.945 -15.243   7.693  1.00  0.00     0.142 A 
ATOM      6  C   UNL     1      12.311 -16.531   7.246  1.00  0.00     0.018 A 
ATOM      7  C   UNL     1      11.348 -17.544   7.276  1.00  0.00     0.019 A 
ATOM      8  C   UNL     1      10.065 -17.258   7.742  1.00  0.00     0.094 A 
ATOM      9  C   UNL     1       9.775 -15.957   8.169  1.00  0.00     0.336 A 
ATOM     10  O   UNL     1       8.624 -15.678   8.593  1.00  0.00    -0.246 OA
ATOM     11  O   UNL     1      10.709 -15.010   8.130  1.00  0.00    -0.423 OA
ENDROOT
BRANCH   3  12
ATOM     12  O   UNL     1      15.113 -13.406   7.205  1.00  0.00    -0.508 OA
ATOM     13  H   UNL     1      14.835 -12.454   6.990  1.00  0.00     0.293 HD
ENDBRANCH   3  12
TORSDOF 1
ENDMDL
MODEL 2
REMARK VINA RESULT:    -5.210      0.940      4.224
REMARK INTER + INTRA:          -5.362
REMARK INTER:                  -5.362
REMARK INTRA:                   0.000
REMARK UNBOUND:                 0.000
REMARK SMILES O=c1ccc2ccc(O)cc2o1
REMARK SMILES IDX 6 1 7 2 8 3 10 4 11 5 5 6 4 7 3 8 2 9 1 10 12 11 9 12
REMARK H PARENT 9 13
REMARK Flexibility Score: inf
ROOT
ATOM      1  C   UNL     1      11.256 -17.781   7.483  1.00  0.00     0.016 A 
ATOM      2  C   UNL     1       9.890 -17.484   7.464  1.00  0.00     0.047 A 
ATOM      3  C   UNL     1       9.456 -16.150   7.439  1.00  0.00     0.119 A 
ATOM      4  C   UNL     1      10.393 -15.111   7.434  1.00  0.00     0.094 A 
ATOM      5  C   UNL     1      11.763 -15.398   7.454  1.00  0.00     0.142 A 
ATOM      6  C   UNL     1      12.197 -16.742   7.479  1.00  0.00     0.018 A 
ATOM      7  C   UNL     1      13.572 -16.997   7.498  1.00  0.00     0.019 A 
ATOM      8  C   UNL     1      14.468 -15.929   7.493  1.00  0.00     0.094 A 
ATOM      9  C   UNL     1      13.965 -14.623   7.468  1.00  0.00     0.336 A 
ATOM     10  O   UNL     1      14.756 -13.645   7.463  1.00  0.00    -0.246 OA
ATOM     11  O   UNL     1      12.652 -14.407   7.450  1.00  0.00    -0.423 OA
ENDROOT
BRANCH   3  12
ATOM     12  O   UNL     1       8.097 -15.847   7.418  1.00  0.00    -0.508 OA
ATOM     13  H   UNL     1       7.393 -16.576   7.390  1.00  0.00     0.293 HD
ENDBRANCH   3  12
TORSDOF 1
ENDMDL
MODEL 3
REMARK VINA RESULT:    -4.999      0.976      4.327
REMARK INTER + INTRA:          -5.145
REMARK INTER:                  -5.145
REMARK INTRA:                   0.000
REMARK UNBOUND:                 0.000
REMARK SMILES O=c1ccc2ccc(O)cc2o1
REMARK SMILES IDX 6 1 7 2 8 3 10 4 11 5 5 6 4 7 3 8 2 9 1 10 12 11 9 12
REMARK H PARENT 9 13
REMARK Flexibility Score: inf
ROOT
ATOM      1  C   UNL     1      10.455 -17.969   7.087  1.00  0.00     0.016 A 
ATOM      2  C   UNL     1       9.183 -17.656   7.577  1.00  0.00     0.047 A 
ATOM      3  C   UNL     1       8.936 -16.403   8.157  1.00  0.00     0.119 A 
ATOM      4  C   UNL     1       9.967 -15.460   8.246  1.00  0.00     0.094 A 
ATOM      5  C   UNL     1      11.244 -15.764   7.760  1.00  0.00     0.142 A 
ATOM      6  C   UNL     1      11.489 -17.027   7.176  1.00  0.00     0.018 A 
ATOM      7  C   UNL     1      12.774 -17.301   6.699  1.00  0.00     0.019 A 
ATOM      8  C   UNL     1      13.769 -16.330   6.811  1.00  0.00     0.094 A 
ATOM      9  C   UNL     1      13.453 -15.101   7.401  1.00  0.00     0.336 A 
ATOM     10  O   UNL     1      14.335 -14.212   7.512  1.00  0.00    -0.246 OA
ATOM     11  O   UNL     1      12.221 -14.865   7.848  1.00  0.00    -0.423 OA
ENDROOT
BRANCH   3  12
ATOM     12  O   UNL     1       7.672 -16.084   8.646  1.00  0.00    -0.508 OA
ATOM     13  H   UNL     1       6.891 -15.915   8.022  1.00  0.00     0.293 HD
ENDBRANCH   3  12
TORSDOF 1
ENDMDL
MODEL 4
REMARK VINA RESULT:    -4.781      1.049      1.389
REMARK INTER + INTRA:          -4.921
REMARK INTER:                  -4.921
REMARK INTRA:                   0.000
REMARK UNBOUND:                 0.000
REMARK SMILES O=c1ccc2ccc(O)cc2o1
REMARK SMILES IDX 6 1 7 2 8 3 10 4 11 5 5 6 4 7 3 8 2 9 1 10 12 11 9 12
REMARK H PARENT 9 13
REMARK Flexibility Score: inf
ROOT
ATOM      1  C   UNL     1      12.340 -17.521   7.175  1.00  0.00     0.016 A 
ATOM      2  C   UNL     1      13.346 -16.552   7.116  1.00  0.00     0.047 A 
ATOM      3  C   UNL     1      13.063 -15.216   7.437  1.00  0.00     0.119 A 
ATOM      4  C   UNL     1      11.766 -14.850   7.818  1.00  0.00     0.094 A 
ATOM      5  C   UNL     1      10.752 -15.813   7.878  1.00  0.00     0.142 A 
ATOM      6  C   UNL     1      11.041 -17.157   7.555  1.00  0.00     0.018 A 
ATOM      7  C   UNL     1      10.007 -18.096   7.626  1.00  0.00     0.019 A 
ATOM      8  C   UNL     1       8.732 -17.683   8.009  1.00  0.00     0.094 A 
ATOM      9  C   UNL     1       8.519 -16.334   8.315  1.00  0.00     0.336 A 
ATOM     10  O   UNL     1       7.376 -15.941   8.663  1.00  0.00    -0.246 OA
ATOM     11  O   UNL     1       9.521 -15.461   8.240  1.00  0.00    -0.423 OA
ENDROOT
BRANCH   3  12
ATOM     12  O   UNL     1      14.060 -14.246   7.381  1.00  0.00    -0.508 OA
ATOM     13  H   UNL     1      14.621 -14.111   6.547  1.00  0.00     0.293 HD
ENDBRANCH   3  12
TORSDOF 1
ENDMDL
MODEL 5
REMARK VINA RESULT:    -4.765      1.405      1.506
REMARK INTER + INTRA:          -4.905
REMARK INTER:                  -4.905
REMARK INTRA:                   0.000
REMARK UNBOUND:                 0.000
REMARK SMILES O=c1ccc2ccc(O)cc2o1
REMARK SMILES IDX 6 1 7 2 8 3 10 4 11 5 5 6 4 7 3 8 2 9 1 10 12 11 9 12
REMARK H PARENT 9 13
REMARK Flexibility Score: inf
ROOT
ATOM      1  C   UNL     1      12.787 -17.913   6.671  1.00  0.00     0.016 A 
ATOM      2  C   UNL     1      14.013 -17.398   7.103  1.00  0.00     0.047 A 
ATOM      3  C   UNL     1      14.053 -16.362   8.048  1.00  0.00     0.119 A 
ATOM      4  C   UNL     1      12.859 -15.838   8.560  1.00  0.00     0.094 A 
ATOM      5  C   UNL     1      11.627 -16.346   8.132  1.00  0.00     0.142 A 
ATOM      6  C   UNL     1      11.591 -17.390   7.181  1.00  0.00     0.018 A 
ATOM      7  C   UNL     1      10.344 -17.875   6.774  1.00  0.00     0.019 A 
ATOM      8  C   UNL     1       9.183 -17.322   7.312  1.00  0.00     0.094 A 
ATOM      9  C   UNL     1       9.297 -16.289   8.249  1.00  0.00     0.336 A 
ATOM     10  O   UNL     1       8.261 -15.776   8.747  1.00  0.00    -0.246 OA
ATOM     11  O   UNL     1      10.495 -15.844   8.621  1.00  0.00    -0.423 OA
ENDROOT
BRANCH   3  12
ATOM     12  O   UNL     1      15.270 -15.845   8.484  1.00  0.00    -0.508 OA
ATOM     13  H   UNL     1      15.325 -14.950   8.956  1.00  0.00     0.293 HD
ENDBRANCH   3  12
TORSDOF 1
ENDMDL
MODEL 6
REMARK VINA RESULT:    -4.649      2.143      4.851
REMARK INTER + INTRA:          -4.785
REMARK INTER:                  -4.785
REMARK INTRA:                   0.000
REMARK UNBOUND:                 0.000
REMARK SMILES O=c1ccc2ccc(O)cc2o1
REMARK SMILES IDX 6 1 7 2 8 3 10 4 11 5 5 6 4 7 3 8 2 9 1 10 12 11 9 12
REMARK H PARENT 9 13
REMARK Flexibility Score: inf
ROOT
ATOM      1  C   UNL     1      10.281 -15.256   7.536  1.00  0.00     0.016 A 
ATOM      2  C   UNL     1       9.078 -15.934   7.314  1.00  0.00     0.047 A 
ATOM      3  C   UNL     1       9.080 -17.310   7.041  1.00  0.00     0.119 A 
ATOM      4  C   UNL     1      10.292 -18.009   6.988  1.00  0.00     0.094 A 
ATOM      5  C   UNL     1      11.501 -17.339   7.208  1.00  0.00     0.142 A 
ATOM      6  C   UNL     1      11.495 -15.954   7.484  1.00  0.00     0.018 A 
ATOM      7  C   UNL     1      12.719 -15.313   7.699  1.00  0.00     0.019 A 
ATOM      8  C   UNL     1      13.900 -16.052   7.636  1.00  0.00     0.094 A 
ATOM      9  C   UNL     1      13.829 -17.421   7.357  1.00  0.00     0.336 A 
ATOM     10  O   UNL     1      14.883 -18.106   7.296  1.00  0.00    -0.246 OA
ATOM     11  O   UNL     1      12.651 -18.008   7.156  1.00  0.00    -0.423 OA
ENDROOT
BRANCH   3  12
ATOM     12  O   UNL     1       7.886 -17.991   6.820  1.00  0.00    -0.508 OA
ATOM     13  H   UNL     1       7.736 -18.536   5.978  1.00  0.00     0.293 HD
ENDBRANCH   3  12
TORSDOF 1
ENDMDL
MODEL 7
REMARK VINA RESULT:    -4.604      2.163      2.821
REMARK INTER + INTRA:          -4.738
REMARK INTER:                  -4.738
REMARK INTRA:                   0.000
REMARK UNBOUND:                 0.000
REMARK SMILES O=c1ccc2ccc(O)cc2o1
REMARK SMILES IDX 6 1 7 2 8 3 10 4 11 5 5 6 4 7 3 8 2 9 1 10 12 11 9 12
REMARK H PARENT 9 13
REMARK Flexibility Score: inf
ROOT
ATOM      1  C   UNL     1      12.247 -15.405   8.294  1.00  0.00     0.016 A 
ATOM      2  C   UNL     1      13.506 -16.000   8.168  1.00  0.00     0.047 A 
ATOM      3  C   UNL     1      13.639 -17.256   7.559  1.00  0.00     0.119 A 
ATOM      4  C   UNL     1      12.505 -17.920   7.075  1.00  0.00     0.094 A 
ATOM      5  C   UNL     1      11.240 -17.334   7.199  1.00  0.00     0.142 A 
ATOM      6  C   UNL     1      11.110 -16.068   7.812  1.00  0.00     0.018 A 
ATOM      7  C   UNL     1       9.834 -15.509   7.920  1.00  0.00     0.019 A 
ATOM      8  C   UNL     1       8.734 -16.208   7.424  1.00  0.00     0.094 A 
ATOM      9  C   UNL     1       8.939 -17.458   6.829  1.00  0.00     0.336 A 
ATOM     10  O   UNL     1       7.960 -18.106   6.375  1.00  0.00    -0.246 OA
ATOM     11  O   UNL     1      10.164 -17.969   6.739  1.00  0.00    -0.423 OA
ENDROOT
BRANCH   3  12
ATOM     12  O   UNL     1      14.890 -17.854   7.428  1.00  0.00    -0.508 OA
ATOM     13  H   UNL     1      15.127 -18.411   6.615  1.00  0.00     0.293 HD
ENDBRANCH   3  12
TORSDOF 1
ENDMDL
MODEL 8
REMARK VINA RESULT:    -4.581      1.640      2.186
REMARK INTER + INTRA:          -4.715
REMARK INTER:                  -4.715
REMARK INTRA:                   0.000
REMARK UNBOUND:                 0.000
REMARK SMILES O=c1ccc2ccc(O)cc2o1
REMARK SMILES IDX 6 1 7 2 8 3 10 4 11 5 5 6 4 7 3 8 2 9 1 10 12 11 9 12
REMARK H PARENT 9 13
REMARK Flexibility Score: inf
ROOT
ATOM      1  C   UNL     1      12.311 -14.250   7.312  1.00  0.00     0.016 A 
ATOM      2  C   UNL     1      13.651 -14.466   7.649  1.00  0.00     0.047 A 
ATOM      3  C   UNL     1      14.040 -15.654   8.283  1.00  0.00     0.119 A 
ATOM      4  C   UNL     1      13.082 -16.631   8.582  1.00  0.00     0.094 A 
ATOM      5  C   UNL     1      11.738 -16.424   8.250  1.00  0.00     0.142 A 
ATOM      6  C   UNL     1      11.350 -15.225   7.611  1.00  0.00     0.018 A 
ATOM      7  C   UNL     1      10.001 -15.048   7.292  1.00  0.00     0.019 A 
ATOM      8  C   UNL     1       9.084 -16.049   7.610  1.00  0.00     0.094 A 
ATOM      9  C   UNL     1       9.540 -17.210   8.244  1.00  0.00     0.336 A 
ATOM     10  O   UNL     1       8.729 -18.125   8.539  1.00  0.00    -0.246 OA
ATOM     11  O   UNL     1      10.830 -17.355   8.537  1.00  0.00    -0.423 OA
ENDROOT
BRANCH   3  12
ATOM     12  O   UNL     1      15.372 -15.876   8.621  1.00  0.00    -0.508 OA
ATOM     13  H   UNL     1      15.919 -15.174   9.106  1.00  0.00     0.293 HD
ENDBRANCH   3  12
TORSDOF 1
ENDMDL
MODEL 9
REMARK VINA RESULT:    -4.115      1.619      2.391
REMARK INTER + INTRA:          -4.236
REMARK INTER:                  -4.236
REMARK INTRA:                   0.000
REMARK UNBOUND:                 0.000
REMARK SMILES O=c1ccc2ccc(O)cc2o1
REMARK SMILES IDX 6 1 7 2 8 3 10 4 11 5 5 6 4 7 3 8 2 9 1 10 12 11 9 12
REMARK H PARENT 9 13
REMARK Flexibility Score: inf
ROOT
ATOM      1  C   UNL     1      11.064 -18.125   6.253  1.00  0.00     0.016 A 
ATOM      2  C   UNL     1      12.350 -17.583   6.346  1.00  0.00     0.047 A 
ATOM      3  C   UNL     1      12.583 -16.445   7.133  1.00  0.00     0.119 A 
ATOM      4  C   UNL     1      11.525 -15.847   7.827  1.00  0.00     0.094 A 
ATOM      5  C   UNL     1      10.234 -16.382   7.738  1.00  0.00     0.142 A 
ATOM      6  C   UNL     1      10.002 -17.528   6.946  1.00  0.00     0.018 A 
ATOM      7  C   UNL     1       8.702 -18.038   6.878  1.00  0.00     0.019 A 
ATOM      8  C   UNL     1       7.680 -17.408   7.587  1.00  0.00     0.094 A 
ATOM      9  C   UNL     1       7.984 -16.276   8.351  1.00  0.00     0.336 A 
ATOM     10  O   UNL     1       7.077 -15.692   8.998  1.00  0.00    -0.246 OA
ATOM     11  O   UNL     1       9.230 -15.810   8.399  1.00  0.00    -0.423 OA
ENDROOT
BRANCH   3  12
ATOM     12  O   UNL     1      13.861 -15.900   7.231  1.00  0.00    -0.508 OA
ATOM     13  H   UNL     1      14.139 -15.345   8.033  1.00  0.00     0.293 HD
ENDBRANCH   3  12
TORSDOF 1
ENDMDL
