MODEL 1
REMARK VINA RESULT:    -5.590      0.000      0.000
REMARK INTER + INTRA:          -5.917
REMARK INTER:                  -5.917
REMARK INTRA:                   0.000
REMARK UNBOUND:                 0.000
REMARK SMILES O=c1ccc2cc(O)c(O)cc2o1
REMARK SMILES IDX 4 1 3 2 2 3 1 4 13 5 12 6 11 7 9 8 7 9 6 10 5 11 8 12 10 14
REMARK H PARENT 8 13 10 15
REMARK Flexibility Score: inf
ROOT
ATOM      1  C   UNL     1      60.172   0.384  -3.064  1.00  0.00     0.019 A 
ATOM      2  C   UNL     1      59.647   1.526  -3.667  1.00  0.00     0.094 A 
ATOM      3  C   UNL     1      58.585   2.193  -3.047  1.00  0.00     0.336 A 
ATOM      4  O   UNL     1      58.098   3.227  -3.576  1.00  0.00    -0.246 OA
ATOM      5  O   UNL     1      58.086   1.744  -1.899  1.00  0.00    -0.423 OA
ATOM      6  C   UNL     1      58.556   0.658  -1.290  1.00  0.00     0.142 A 
ATOM      7  C   UNL     1      57.990   0.232  -0.084  1.00  0.00     0.098 A 
ATOM      8  C   UNL     1      58.484  -0.911   0.562  1.00  0.00     0.161 A 
ATOM      9  C   UNL     1      59.546  -1.632  -0.002  1.00  0.00     0.158 A 
ATOM     10  C   UNL     1      60.118  -1.210  -1.210  1.00  0.00     0.062 A 
ATOM     11  C   UNL     1      59.627  -0.067  -1.856  1.00  0.00     0.022 A 
ENDROOT
BRANCH   9  12
ATOM     12  O   UNL     1      60.030  -2.767   0.647  1.00  0.00    -0.504 OA
ATOM     13  H   UNL     1      60.822  -3.287   0.287  1.00  0.00     0.293 HD
ENDBRANCH   9  12
BRANCH   8  14
ATOM     14  O   UNL     1      57.922  -1.339   1.764  1.00  0.00    -0.504 OA
ATOM     15  H   UNL     1      57.581  -2.287   1.882  1.00  0.00     0.293 HD
ENDBRANCH   8  14
TORSDOF 2
ENDMDL
MODEL 2
REMARK VINA RESULT:    -5.394      1.795      4.410
REMARK INTER + INTRA:          -5.710
REMARK INTER:                  -5.710
REMARK INTRA:                   0.000
REMARK UNBOUND:                 0.000
REMARK SMILES O=c1ccc2cc(O)c(O)cc2o1
REMARK SMILES IDX 4 1 3 2 2 3 1 4 13 5 12 6 11 7 9 8 7 9 6 10 5 11 8 12 10 14
REMARK H PARENT 8 13 10 15
REMARK Flexibility Score: inf
ROOT
ATOM      1  C   UNL     1      60.123  -1.660  -3.468  1.00  0.00     0.019 A 
ATOM      2  C   UNL     1      59.810  -2.909  -2.931  1.00  0.00     0.094 A 
ATOM      3  C   UNL     1      58.878  -2.985  -1.891  1.00  0.00     0.336 A 
ATOM      4  O   UNL     1      58.582  -4.103  -1.393  1.00  0.00    -0.246 OA
ATOM      5  O   UNL     1      58.298  -1.883  -1.423  1.00  0.00    -0.423 OA
ATOM      6  C   UNL     1      58.568  -0.672  -1.906  1.00  0.00     0.142 A 
ATOM      7  C   UNL     1      57.928   0.452  -1.374  1.00  0.00     0.098 A 
ATOM      8  C   UNL     1      58.208   1.729  -1.880  1.00  0.00     0.161 A 
ATOM      9  C   UNL     1      59.134   1.883  -2.923  1.00  0.00     0.158 A 
ATOM     10  C   UNL     1      59.779   0.760  -3.460  1.00  0.00     0.062 A 
ATOM     11  C   UNL     1      59.499  -0.517  -2.956  1.00  0.00     0.022 A 
ENDROOT
BRANCH   9  12
ATOM     12  O   UNL     1      59.406   3.156  -3.420  1.00  0.00    -0.504 OA
ATOM     13  H   UNL     1      59.158   3.421  -4.366  1.00  0.00     0.293 HD
ENDBRANCH   9  12
BRANCH   8  14
ATOM     14  O   UNL     1      57.573   2.851  -1.352  1.00  0.00    -0.504 OA
ATOM     15  H   UNL     1      57.922   3.788  -1.522  1.00  0.00     0.293 HD
ENDBRANCH   8  14
TORSDOF 2
ENDMDL
MODEL 3
REMARK VINA RESULT:    -5.393      2.371      4.724
REMARK INTER + INTRA:          -5.708
REMARK INTER:                  -5.708
REMARK INTRA:                   0.000
REMARK UNBOUND:                 0.000
REMARK SMILES O=c1ccc2cc(O)c(O)cc2o1
REMARK SMILES IDX 4 1 3 2 2 3 1 4 13 5 12 6 11 7 9 8 7 9 6 10 5 11 8 12 10 14
REMARK H PARENT 8 13 10 15
REMARK Flexibility Score: inf
ROOT
ATOM      1  C   UNL     1      58.350  -1.918  -1.789  1.00  0.00     0.019 A 
ATOM      2  C   UNL     1      59.055  -2.949  -2.410  1.00  0.00     0.094 A 
ATOM      3  C   UNL     1      59.994  -2.629  -3.396  1.00  0.00     0.336 A 
ATOM      4  O   UNL     1      60.641  -3.546  -3.968  1.00  0.00    -0.246 OA
ATOM      5  O   UNL     1      60.211  -1.361  -3.733  1.00  0.00    -0.423 OA
ATOM      6  C   UNL     1      59.561  -0.348  -3.167  1.00  0.00     0.142 A 
ATOM      7  C   UNL     1      59.831   0.966  -3.563  1.00  0.00     0.098 A 
ATOM      8  C   UNL     1      59.149   2.037  -2.968  1.00  0.00     0.161 A 
ATOM      9  C   UNL     1      58.192   1.793  -1.972  1.00  0.00     0.158 A 
ATOM     10  C   UNL     1      57.917   0.478  -1.571  1.00  0.00     0.062 A 
ATOM     11  C   UNL     1      58.598  -0.594  -2.164  1.00  0.00     0.022 A 
ENDROOT
BRANCH   9  12
ATOM     12  O   UNL     1      57.518   2.863  -1.386  1.00  0.00    -0.504 OA
ATOM     13  H   UNL     1      58.018   3.646  -0.981  1.00  0.00     0.293 HD
ENDBRANCH   9  12
BRANCH   8  14
ATOM     14  O   UNL     1      59.415   3.347  -3.361  1.00  0.00    -0.504 OA
ATOM     15  H   UNL     1      59.202   4.135  -2.759  1.00  0.00     0.293 HD
ENDBRANCH   8  14
TORSDOF 2
ENDMDL
MODEL 4
REMARK VINA RESULT:    -5.219      1.564      2.066
REMARK INTER + INTRA:          -5.525
REMARK INTER:                  -5.525
REMARK INTRA:                   0.000
REMARK UNBOUND:                 0.000
REMARK SMILES O=c1ccc2cc(O)c(O)cc2o1
REMARK SMILES IDX 4 1 3 2 2 3 1 4 13 5 12 6 11 7 9 8 7 9 6 10 5 11 8 12 10 14
REMARK H PARENT 8 13 10 15
REMARK Flexibility Score: inf
ROOT
ATOM      1  C   UNL     1      60.655  -0.830  -1.209  1.00  0.00     0.019 A 
ATOM      2  C   UNL     1      60.800  -0.163  -2.425  1.00  0.00     0.094 A 
ATOM      3  C   UNL     1      59.682   0.456  -2.995  1.00  0.00     0.336 A 
ATOM      4  O   UNL     1      59.792   1.063  -4.093  1.00  0.00    -0.246 OA
ATOM      5  O   UNL     1      58.502   0.410  -2.385  1.00  0.00    -0.423 OA
ATOM      6  C   UNL     1      58.320  -0.216  -1.224  1.00  0.00     0.142 A 
ATOM      7  C   UNL     1      57.054  -0.231  -0.628  1.00  0.00     0.098 A 
ATOM      8  C   UNL     1      56.858  -0.888   0.595  1.00  0.00     0.161 A 
ATOM      9  C   UNL     1      57.933  -1.532   1.226  1.00  0.00     0.158 A 
ATOM     10  C   UNL     1      59.203  -1.520   0.634  1.00  0.00     0.062 A 
ATOM     11  C   UNL     1      59.401  -0.863  -0.589  1.00  0.00     0.022 A 
ENDROOT
BRANCH   9  12
ATOM     12  O   UNL     1      57.729  -2.182   2.442  1.00  0.00    -0.504 OA
ATOM     13  H   UNL     1      57.276  -3.088   2.490  1.00  0.00     0.293 HD
ENDBRANCH   9  12
BRANCH   8  14
ATOM     14  O   UNL     1      55.599  -0.906   1.191  1.00  0.00    -0.504 OA
ATOM     15  H   UNL     1      55.129  -1.777   1.413  1.00  0.00     0.293 HD
ENDBRANCH   8  14
TORSDOF 2
ENDMDL
MODEL 5
REMARK VINA RESULT:    -5.204      1.615      2.827
REMARK INTER + INTRA:          -5.508
REMARK INTER:                  -5.508
REMARK INTRA:                   0.000
REMARK UNBOUND:                 0.000
REMARK SMILES O=c1ccc2cc(O)c(O)cc2o1
REMARK SMILES IDX 4 1 3 2 2 3 1 4 13 5 12 6 11 7 9 8 7 9 6 10 5 11 8 12 10 14
REMARK H PARENT 8 13 10 15
REMARK Flexibility Score: inf
ROOT
ATOM      1  C   UNL     1      58.102   1.191  -0.986  1.00  0.00     0.019 A 
ATOM      2  C   UNL     1      57.875   2.377  -1.685  1.00  0.00     0.094 A 
ATOM      3  C   UNL     1      58.459   2.542  -2.946  1.00  0.00     0.336 A 
ATOM      4  O   UNL     1      58.266   3.605  -3.593  1.00  0.00    -0.246 OA
ATOM      5  O   UNL     1      59.218   1.583  -3.468  1.00  0.00    -0.423 OA
ATOM      6  C   UNL     1      59.461   0.437  -2.835  1.00  0.00     0.142 A 
ATOM      7  C   UNL     1      60.268  -0.536  -3.434  1.00  0.00     0.098 A 
ATOM      8  C   UNL     1      60.525  -1.744  -2.771  1.00  0.00     0.161 A 
ATOM      9  C   UNL     1      59.974  -1.980  -1.503  1.00  0.00     0.158 A 
ATOM     10  C   UNL     1      59.165  -1.009  -0.898  1.00  0.00     0.062 A 
ATOM     11  C   UNL     1      58.905   0.199  -1.559  1.00  0.00     0.022 A 
ENDROOT
BRANCH   9  12
ATOM     12  O   UNL     1      60.236  -3.184  -0.851  1.00  0.00    -0.504 OA
ATOM     13  H   UNL     1      60.358  -3.228   0.154  1.00  0.00     0.293 HD
ENDBRANCH   9  12
BRANCH   8  14
ATOM     14  O   UNL     1      61.329  -2.716  -3.364  1.00  0.00    -0.504 OA
ATOM     15  H   UNL     1      60.985  -3.300  -4.118  1.00  0.00     0.293 HD
ENDBRANCH   8  14
TORSDOF 2
ENDMDL
MODEL 6
REMARK VINA RESULT:    -5.202      1.229      4.510
REMARK INTER + INTRA:          -5.506
REMARK INTER:                  -5.506
REMARK INTRA:                   0.000
REMARK UNBOUND:                 0.000
REMARK SMILES O=c1ccc2cc(O)c(O)cc2o1
REMARK SMILES IDX 4 1 3 2 2 3 1 4 13 5 12 6 11 7 9 8 7 9 6 10 5 11 8 12 10 14
REMARK H PARENT 8 13 10 15
REMARK Flexibility Score: inf
ROOT
ATOM      1  C   UNL     1      61.092  -1.506  -1.317  1.00  0.00     0.019 A 
ATOM      2  C   UNL     1      61.142  -2.234  -0.128  1.00  0.00     0.094 A 
ATOM      3  C   UNL     1      60.241  -1.923   0.896  1.00  0.00     0.336 A 
ATOM      4  O   UNL     1      60.271  -2.569   1.977  1.00  0.00    -0.246 OA
ATOM      5  O   UNL     1      59.351  -0.948   0.737  1.00  0.00    -0.423 OA
ATOM      6  C   UNL     1      59.269  -0.228  -0.380  1.00  0.00     0.142 A 
ATOM      7  C   UNL     1      58.312   0.786  -0.491  1.00  0.00     0.098 A 
ATOM      8  C   UNL     1      58.222   1.546  -1.666  1.00  0.00     0.161 A 
ATOM      9  C   UNL     1      59.093   1.291  -2.735  1.00  0.00     0.158 A 
ATOM     10  C   UNL     1      60.054   0.275  -2.630  1.00  0.00     0.062 A 
ATOM     11  C   UNL     1      60.145  -0.486  -1.457  1.00  0.00     0.022 A 
ENDROOT
BRANCH   9  12
ATOM     12  O   UNL     1      58.996   2.051  -3.900  1.00  0.00    -0.504 OA
ATOM     13  H   UNL     1      59.743   2.071  -4.583  1.00  0.00     0.293 HD
ENDBRANCH   9  12
BRANCH   8  14
ATOM     14  O   UNL     1      57.270   2.557  -1.779  1.00  0.00    -0.504 OA
ATOM     15  H   UNL     1      56.342   2.374  -2.145  1.00  0.00     0.293 HD
ENDBRANCH   8  14
TORSDOF 2
ENDMDL
MODEL 7
REMARK VINA RESULT:    -4.982      1.309      5.017
REMARK INTER + INTRA:          -5.274
REMARK INTER:                  -5.274
REMARK INTRA:                   0.000
REMARK UNBOUND:                 0.000
REMARK SMILES O=c1ccc2cc(O)c(O)cc2o1
REMARK SMILES IDX 4 1 3 2 2 3 1 4 13 5 12 6 11 7 9 8 7 9 6 10 5 11 8 12 10 14
REMARK H PARENT 8 13 10 15
REMARK Flexibility Score: inf
ROOT
ATOM      1  C   UNL     1      57.792  -0.470   0.645  1.00  0.00     0.019 A 
ATOM      2  C   UNL     1      58.169  -1.771   0.978  1.00  0.00     0.094 A 
ATOM      3  C   UNL     1      58.971  -2.493   0.087  1.00  0.00     0.336 A 
ATOM      4  O   UNL     1      59.321  -3.669   0.369  1.00  0.00    -0.246 OA
ATOM      5  O   UNL     1      59.368  -1.945  -1.058  1.00  0.00    -0.423 OA
ATOM      6  C   UNL     1      59.031  -0.708  -1.414  1.00  0.00     0.142 A 
ATOM      7  C   UNL     1      59.478  -0.184  -2.632  1.00  0.00     0.098 A 
ATOM      8  C   UNL     1      59.127   1.120  -3.011  1.00  0.00     0.161 A 
ATOM      9  C   UNL     1      58.324   1.902  -2.169  1.00  0.00     0.158 A 
ATOM     10  C   UNL     1      57.873   1.383  -0.947  1.00  0.00     0.062 A 
ATOM     11  C   UNL     1      58.224   0.081  -0.566  1.00  0.00     0.022 A 
ENDROOT
BRANCH   9  12
ATOM     12  O   UNL     1      57.979   3.197  -2.554  1.00  0.00    -0.504 OA
ATOM     13  H   UNL     1      57.458   3.812  -1.939  1.00  0.00     0.293 HD
ENDBRANCH   9  12
BRANCH   8  14
ATOM     14  O   UNL     1      59.570   1.644  -4.223  1.00  0.00    -0.504 OA
ATOM     15  H   UNL     1      59.843   1.043  -4.993  1.00  0.00     0.293 HD
ENDBRANCH   8  14
TORSDOF 2
ENDMDL
MODEL 8
REMARK VINA RESULT:    -4.941      1.523      2.430
REMARK INTER + INTRA:          -5.229
REMARK INTER:                  -5.229
REMARK INTRA:                   0.000
REMARK UNBOUND:                 0.000
REMARK SMILES O=c1ccc2cc(O)c(O)cc2o1
REMARK SMILES IDX 4 1 3 2 2 3 1 4 13 5 12 6 11 7 9 8 7 9 6 10 5 11 8 12 10 14
REMARK H PARENT 8 13 10 15
REMARK Flexibility Score: inf
ROOT
ATOM      1  C   UNL     1      57.935   1.041  -2.000  1.00  0.00     0.019 A 
ATOM      2  C   UNL     1      58.834   1.370  -3.015  1.00  0.00     0.094 A 
ATOM      3  C   UNL     1      60.112   0.800  -2.998  1.00  0.00     0.336 A 
ATOM      4  O   UNL     1      60.937   1.084  -3.905  1.00  0.00    -0.246 OA
ATOM      5  O   UNL     1      60.461  -0.043  -2.031  1.00  0.00    -0.423 OA
ATOM      6  C   UNL     1      59.635  -0.383  -1.044  1.00  0.00     0.142 A 
ATOM      7  C   UNL     1      60.058  -1.274  -0.053  1.00  0.00     0.098 A 
ATOM      8  C   UNL     1      59.190  -1.636   0.988  1.00  0.00     0.161 A 
ATOM      9  C   UNL     1      57.894  -1.103   1.038  1.00  0.00     0.158 A 
ATOM     10  C   UNL     1      57.464  -0.210   0.047  1.00  0.00     0.062 A 
ATOM     11  C   UNL     1      58.329   0.152  -0.995  1.00  0.00     0.022 A 
ENDROOT
BRANCH   9  12
ATOM     12  O   UNL     1      57.038  -1.469   2.076  1.00  0.00    -0.504 OA
ATOM     13  H   UNL     1      57.354  -2.047   2.845  1.00  0.00     0.293 HD
ENDBRANCH   9  12
BRANCH   8  14
ATOM     14  O   UNL     1      59.609  -2.523   1.978  1.00  0.00    -0.504 OA
ATOM     15  H   UNL     1      60.145  -2.209   2.779  1.00  0.00     0.293 HD
ENDBRANCH   8  14
TORSDOF 2
ENDMDL
MODEL 9
REMARK VINA RESULT:    -4.911      1.488      4.407
REMARK INTER + INTRA:          -5.198
REMARK INTER:                  -5.198
REMARK INTRA:                   0.000
REMARK UNBOUND:                 0.000
REMARK SMILES O=c1ccc2cc(O)c(O)cc2o1
REMARK SMILES IDX 4 1 3 2 2 3 1 4 13 5 12 6 11 7 9 8 7 9 6 10 5 11 8 12 10 14
REMARK H PARENT 8 13 10 15
REMARK Flexibility Score: inf
ROOT
ATOM      1  C   UNL     1      59.715  -1.550   0.000  1.00  0.00     0.019 A 
ATOM      2  C   UNL     1      58.713  -1.775   0.943  1.00  0.00     0.094 A 
ATOM      3  C   UNL     1      57.539  -1.016   0.880  1.00  0.00     0.336 A 
ATOM      4  O   UNL     1      56.622  -1.206   1.722  1.00  0.00    -0.246 OA
ATOM      5  O   UNL     1      57.383  -0.095  -0.067  1.00  0.00    -0.423 OA
ATOM      6  C   UNL     1      58.314   0.153  -0.985  1.00  0.00     0.142 A 
ATOM      7  C   UNL     1      58.094   1.135  -1.957  1.00  0.00     0.098 A 
ATOM      8  C   UNL     1      59.072   1.398  -2.927  1.00  0.00     0.161 A 
ATOM      9  C   UNL     1      60.275   0.677  -2.925  1.00  0.00     0.158 A 
ATOM     10  C   UNL     1      60.501  -0.308  -1.954  1.00  0.00     0.062 A 
ATOM     11  C   UNL     1      59.524  -0.574  -0.984  1.00  0.00     0.022 A 
ENDROOT
BRANCH   9  12
ATOM     12  O   UNL     1      61.241   0.946  -3.893  1.00  0.00    -0.504 OA
ATOM     13  H   UNL     1      62.231   0.892  -3.684  1.00  0.00     0.293 HD
ENDBRANCH   9  12
BRANCH   8  14
ATOM     14  O   UNL     1      58.857   2.376  -3.896  1.00  0.00    -0.504 OA
ATOM     15  H   UNL     1      57.994   2.415  -4.428  1.00  0.00     0.293 HD
ENDBRANCH   8  14
TORSDOF 2
ENDMDL
