MODEL 1
REMARK VINA RESULT:    -4.566      0.000      0.000
REMARK INTER + INTRA:         -11.650
REMARK INTER:                  -8.571
REMARK INTRA:                  -3.080
REMARK UNBOUND:                -3.080
REMARK SMILES CCCCCCCCC=CCCCCCCCC(=O)[O-]
REMARK SMILES IDX 10 1 9 2 11 3 12 4 13 5 14 6 15 7 16 8 17 9 18 10 19 11
REMARK SMILES IDX 20 12 8 13 7 14 6 15 5 16 4 17 3 18 2 19 1 20
REMARK H PARENT
REMARK Flexibility Score: inf
ROOT
ATOM      1  C   UNL     1       0.227  -4.252  23.314  1.00  0.00    -0.031 C 
ATOM      2  C   UNL     1       0.127  -4.377  21.978  1.00  0.00    -0.031 C 
ENDROOT
BRANCH   1   3
ATOM      3  C   UNL     1       0.498  -2.950  24.030  1.00  0.00     0.027 C 
BRANCH   3   4
ATOM      4  C   UNL     1       1.999  -2.733  24.304  1.00  0.00     0.004 C 
BRANCH   4   5
ATOM      5  C   UNL     1       2.546  -1.399  23.759  1.00  0.00     0.000 C 
BRANCH   5   6
ATOM      6  C   UNL     1       1.480  -0.332  23.455  1.00  0.00     0.000 C 
BRANCH   6   7
ATOM      7  C   UNL     1       1.456   0.169  21.997  1.00  0.00     0.000 C 
BRANCH   7   8
ATOM      8  C   UNL     1       2.699   0.995  21.602  1.00  0.00     0.006 C 
BRANCH   8   9
ATOM      9  C   UNL     1       3.423   0.417  20.379  1.00  0.00     0.053 C 
BRANCH   9  10
ATOM     10  C   UNL     1       2.653   0.709  19.130  1.00  0.00     0.041 C 
ATOM     11  O   UNL     1       2.040  -0.214  18.532  1.00  0.00    -0.550 OA
ATOM     12  O   UNL     1       2.646   1.994  18.602  1.00  0.00    -0.550 OA
ENDBRANCH   9  10
ENDBRANCH   8   9
ENDBRANCH   7   8
ENDBRANCH   6   7
ENDBRANCH   5   6
ENDBRANCH   4   5
ENDBRANCH   3   4
ENDBRANCH   1   3
BRANCH   2  13
ATOM     13  C   UNL     1       0.229  -3.214  21.019  1.00  0.00     0.027 C 
BRANCH  13  14
ATOM     14  C   UNL     1       1.391  -3.414  20.034  1.00  0.00     0.004 C 
BRANCH  14  15
ATOM     15  C   UNL     1       2.765  -3.175  20.681  1.00  0.00     0.000 C 
BRANCH  15  16
ATOM     16  C   UNL     1       3.591  -4.466  20.807  1.00  0.00     0.000 C 
BRANCH  16  17
ATOM     17  C   UNL     1       4.012  -4.760  22.255  1.00  0.00    -0.000 C 
BRANCH  17  18
ATOM     18  C   UNL     1       3.518  -6.130  22.753  1.00  0.00    -0.000 C 
BRANCH  18  19
ATOM     19  C   UNL     1       3.900  -6.399  24.216  1.00  0.00    -0.003 C 
ATOM     20  C   UNL     1       2.704  -6.321  25.163  1.00  0.00     0.004 C 
ENDBRANCH  18  19
ENDBRANCH  17  18
ENDBRANCH  16  17
ENDBRANCH  15  16
ENDBRANCH  14  15
ENDBRANCH  13  14
ENDBRANCH   2  13
TORSDOF 15
ENDMDL
MODEL 2
REMARK VINA RESULT:    -4.438      3.359      6.307
REMARK INTER + INTRA:         -11.409
REMARK INTER:                  -8.193
REMARK INTRA:                  -3.217
REMARK UNBOUND:                -3.080
REMARK SMILES CCCCCCCCC=CCCCCCCCC(=O)[O-]
REMARK SMILES IDX 10 1 9 2 11 3 12 4 13 5 14 6 15 7 16 8 17 9 18 10 19 11
REMARK SMILES IDX 20 12 8 13 7 14 6 15 5 16 4 17 3 18 2 19 1 20
REMARK H PARENT
REMARK Flexibility Score: inf
ROOT
ATOM      1  C   UNL     1       1.330  -2.759  20.119  1.00  0.00    -0.031 C 
ATOM      2  C   UNL     1       0.240  -2.924  20.893  1.00  0.00    -0.031 C 
ENDROOT
BRANCH   1   3
ATOM      3  C   UNL     1       2.415  -3.794  19.944  1.00  0.00     0.027 C 
BRANCH   3   4
ATOM      4  C   UNL     1       3.784  -3.300  20.451  1.00  0.00     0.004 C 
BRANCH   4   5
ATOM      5  C   UNL     1       3.986  -3.470  21.969  1.00  0.00     0.000 C 
BRANCH   5   6
ATOM      6  C   UNL     1       4.631  -4.800  22.397  1.00  0.00     0.000 C 
BRANCH   6   7
ATOM      7  C   UNL     1       3.637  -5.922  22.753  1.00  0.00     0.000 C 
BRANCH   7   8
ATOM      8  C   UNL     1       3.792  -6.457  24.193  1.00  0.00     0.006 C 
BRANCH   8   9
ATOM      9  C   UNL     1       3.317  -5.448  25.248  1.00  0.00     0.053 C 
BRANCH   9  10
ATOM     10  C   UNL     1       2.106  -5.965  25.957  1.00  0.00     0.041 C 
ATOM     11  O   UNL     1       1.750  -7.164  25.813  1.00  0.00    -0.550 OA
ATOM     12  O   UNL     1       1.345  -5.111  26.745  1.00  0.00    -0.550 OA
ENDBRANCH   9  10
ENDBRANCH   8   9
ENDBRANCH   7   8
ENDBRANCH   6   7
ENDBRANCH   5   6
ENDBRANCH   4   5
ENDBRANCH   3   4
ENDBRANCH   1   3
BRANCH   2  13
ATOM     13  C   UNL     1      -0.061  -4.194  21.654  1.00  0.00     0.027 C 
BRANCH  13  14
ATOM     14  C   UNL     1       0.526  -4.136  23.072  1.00  0.00     0.004 C 
BRANCH  14  15
ATOM     15  C   UNL     1       0.398  -2.745  23.712  1.00  0.00     0.000 C 
BRANCH  15  16
ATOM     16  C   UNL     1       1.661  -2.333  24.489  1.00  0.00     0.000 C 
BRANCH  16  17
ATOM     17  C   UNL     1       2.262  -1.013  23.983  1.00  0.00    -0.000 C 
BRANCH  17  18
ATOM     18  C   UNL     1       1.207  -0.075  23.368  1.00  0.00    -0.000 C 
BRANCH  18  19
ATOM     19  C   UNL     1       1.586   0.392  21.955  1.00  0.00    -0.003 C 
ATOM     20  C   UNL     1       3.076   0.234  21.661  1.00  0.00     0.004 C 
ENDBRANCH  18  19
ENDBRANCH  17  18
ENDBRANCH  16  17
ENDBRANCH  15  16
ENDBRANCH  14  15
ENDBRANCH  13  14
ENDBRANCH   2  13
TORSDOF 15
ENDMDL
MODEL 3
REMARK VINA RESULT:    -4.345      1.783      4.213
REMARK INTER + INTRA:         -11.235
REMARK INTER:                  -8.419
REMARK INTRA:                  -2.815
REMARK UNBOUND:                -3.080
REMARK SMILES CCCCCCCCC=CCCCCCCCC(=O)[O-]
REMARK SMILES IDX 10 1 9 2 11 3 12 4 13 5 14 6 15 7 16 8 17 9 18 10 19 11
REMARK SMILES IDX 20 12 8 13 7 14 6 15 5 16 4 17 3 18 2 19 1 20
REMARK H PARENT
REMARK Flexibility Score: inf
ROOT
ATOM      1  C   UNL     1       3.417  -3.138  24.756  1.00  0.00    -0.031 C 
ATOM      2  C   UNL     1       4.255  -4.159  24.495  1.00  0.00    -0.031 C 
ENDROOT
BRANCH   1   3
ATOM      3  C   UNL     1       2.297  -2.701  23.843  1.00  0.00     0.027 C 
BRANCH   3   4
ATOM      4  C   UNL     1       0.926  -2.717  24.547  1.00  0.00     0.004 C 
BRANCH   4   5
ATOM      5  C   UNL     1      -0.013  -3.836  24.058  1.00  0.00     0.000 C 
BRANCH   5   6
ATOM      6  C   UNL     1       0.418  -4.528  22.753  1.00  0.00     0.000 C 
BRANCH   6   7
ATOM      7  C   UNL     1      -0.105  -3.869  21.462  1.00  0.00     0.000 C 
BRANCH   7   8
ATOM      8  C   UNL     1       1.006  -3.516  20.449  1.00  0.00     0.006 C 
BRANCH   8   9
ATOM      9  C   UNL     1       1.245  -2.004  20.344  1.00  0.00     0.053 C 
BRANCH   9  10
ATOM     10  C   UNL     1       2.644  -1.726  19.892  1.00  0.00     0.041 C 
ATOM     11  O   UNL     1       2.944  -0.602  19.413  1.00  0.00    -0.550 OA
ATOM     12  O   UNL     1       3.607  -2.725  19.961  1.00  0.00    -0.550 OA
ENDBRANCH   9  10
ENDBRANCH   8   9
ENDBRANCH   7   8
ENDBRANCH   6   7
ENDBRANCH   5   6
ENDBRANCH   4   5
ENDBRANCH   3   4
ENDBRANCH   1   3
BRANCH   2  13
ATOM     13  C   UNL     1       4.152  -5.033  23.268  1.00  0.00     0.027 C 
BRANCH  13  14
ATOM     14  C   UNL     1       3.558  -6.406  23.620  1.00  0.00     0.004 C 
BRANCH  14  15
ATOM     15  C   UNL     1       4.003  -6.910  25.002  1.00  0.00     0.000 C 
BRANCH  15  16
ATOM     16  C   UNL     1       2.829  -7.436  25.846  1.00  0.00     0.000 C 
BRANCH  16  17
ATOM     17  C   UNL     1       1.608  -6.504  25.806  1.00  0.00    -0.000 C 
BRANCH  17  18
ATOM     18  C   UNL     1       1.367  -5.782  27.144  1.00  0.00    -0.000 C 
BRANCH  18  19
ATOM     19  C   UNL     1       2.580  -5.860  28.083  1.00  0.00    -0.003 C 
ATOM     20  C   UNL     1       3.346  -4.541  28.169  1.00  0.00     0.004 C 
ENDBRANCH  18  19
ENDBRANCH  17  18
ENDBRANCH  16  17
ENDBRANCH  15  16
ENDBRANCH  14  15
ENDBRANCH  13  14
ENDBRANCH   2  13
TORSDOF 15
ENDMDL
MODEL 4
REMARK VINA RESULT:    -4.323      1.385      3.118
REMARK INTER + INTRA:         -11.194
REMARK INTER:                  -8.946
REMARK INTRA:                  -2.248
REMARK UNBOUND:                -3.080
REMARK SMILES CCCCCCCCC=CCCCCCCCC(=O)[O-]
REMARK SMILES IDX 10 1 9 2 11 3 12 4 13 5 14 6 15 7 16 8 17 9 18 10 19 11
REMARK SMILES IDX 20 12 8 13 7 14 6 15 5 16 4 17 3 18 2 19 1 20
REMARK H PARENT
REMARK Flexibility Score: inf
ROOT
ATOM      1  C   UNL     1      -0.069  -4.271  21.637  1.00  0.00    -0.031 C 
ATOM      2  C   UNL     1       0.066  -4.465  22.962  1.00  0.00    -0.031 C 
ENDROOT
BRANCH   1   3
ATOM      3  C   UNL     1       0.234  -2.970  20.931  1.00  0.00     0.027 C 
BRANCH   3   4
ATOM      4  C   UNL     1       1.555  -3.026  20.140  1.00  0.00     0.004 C 
BRANCH   4   5
ATOM      5  C   UNL     1       2.407  -1.748  20.259  1.00  0.00     0.000 C 
BRANCH   5   6
ATOM      6  C   UNL     1       2.144  -0.901  21.516  1.00  0.00     0.000 C 
BRANCH   6   7
ATOM      7  C   UNL     1       1.829   0.584  21.249  1.00  0.00     0.000 C 
BRANCH   7   8
ATOM      8  C   UNL     1       2.871   1.290  20.355  1.00  0.00     0.006 C 
BRANCH   8   9
ATOM      9  C   UNL     1       2.494   1.247  18.868  1.00  0.00     0.053 C 
BRANCH   9  10
ATOM     10  C   UNL     1       2.901   2.516  18.189  1.00  0.00     0.041 C 
ATOM     11  O   UNL     1       3.249   2.505  16.980  1.00  0.00    -0.550 OA
ATOM     12  O   UNL     1       2.937   3.707  18.904  1.00  0.00    -0.550 OA
ENDBRANCH   9  10
ENDBRANCH   8   9
ENDBRANCH   7   8
ENDBRANCH   6   7
ENDBRANCH   5   6
ENDBRANCH   4   5
ENDBRANCH   3   4
ENDBRANCH   1   3
BRANCH   2  13
ATOM     13  C   UNL     1       0.586  -3.413  23.913  1.00  0.00     0.027 C 
BRANCH  13  14
ATOM     14  C   UNL     1       1.003  -4.041  25.252  1.00  0.00     0.004 C 
BRANCH  14  15
ATOM     15  C   UNL     1       0.952  -5.577  25.230  1.00  0.00     0.000 C 
BRANCH  15  16
ATOM     16  C   UNL     1       2.269  -6.219  25.700  1.00  0.00     0.000 C 
BRANCH  16  17
ATOM     17  C   UNL     1       3.486  -5.720  24.906  1.00  0.00    -0.000 C 
BRANCH  17  18
ATOM     18  C   UNL     1       3.578  -6.347  23.502  1.00  0.00    -0.000 C 
BRANCH  18  19
ATOM     19  C   UNL     1       3.551  -5.294  22.384  1.00  0.00    -0.003 C 
ATOM     20  C   UNL     1       4.114  -3.946  22.829  1.00  0.00     0.004 C 
ENDBRANCH  18  19
ENDBRANCH  17  18
ENDBRANCH  16  17
ENDBRANCH  15  16
ENDBRANCH  14  15
ENDBRANCH  13  14
ENDBRANCH   2  13
TORSDOF 15
ENDMDL
MODEL 5
REMARK VINA RESULT:    -4.323      4.097      6.970
REMARK INTER + INTRA:         -11.193
REMARK INTER:                  -8.365
REMARK INTRA:                  -2.828
REMARK UNBOUND:                -3.080
REMARK SMILES CCCCCCCCC=CCCCCCCCC(=O)[O-]
REMARK SMILES IDX 10 1 9 2 11 3 12 4 13 5 14 6 15 7 16 8 17 9 18 10 19 11
REMARK SMILES IDX 20 12 8 13 7 14 6 15 5 16 4 17 3 18 2 19 1 20
REMARK H PARENT
REMARK Flexibility Score: inf
ROOT
ATOM      1  C   UNL     1       3.353  -2.448  24.255  1.00  0.00    -0.031 C 
ATOM      2  C   UNL     1       2.101  -2.275  24.718  1.00  0.00    -0.031 C 
ENDROOT
BRANCH   1   3
ATOM      3  C   UNL     1       3.693  -2.781  22.822  1.00  0.00     0.027 C 
BRANCH   3   4
ATOM      4  C   UNL     1       4.186  -4.232  22.657  1.00  0.00     0.004 C 
BRANCH   4   5
ATOM      5  C   UNL     1       4.230  -5.029  23.975  1.00  0.00     0.000 C 
BRANCH   5   6
ATOM      6  C   UNL     1       3.482  -6.373  23.952  1.00  0.00     0.000 C 
BRANCH   6   7
ATOM      7  C   UNL     1       3.216  -6.996  25.337  1.00  0.00     0.000 C 
BRANCH   7   8
ATOM      8  C   UNL     1       1.776  -6.783  25.849  1.00  0.00     0.006 C 
BRANCH   8   9
ATOM      9  C   UNL     1       1.653  -5.555  26.762  1.00  0.00     0.053 C 
BRANCH   9  10
ATOM     10  C   UNL     1       1.915  -5.934  28.185  1.00  0.00     0.041 C 
ATOM     11  O   UNL     1       0.959  -6.058  28.994  1.00  0.00    -0.550 OA
ATOM     12  O   UNL     1       3.219  -6.109  28.629  1.00  0.00    -0.550 OA
ENDBRANCH   9  10
ENDBRANCH   8   9
ENDBRANCH   7   8
ENDBRANCH   6   7
ENDBRANCH   5   6
ENDBRANCH   4   5
ENDBRANCH   3   4
ENDBRANCH   1   3
BRANCH   2  13
ATOM     13  C   UNL     1       0.869  -2.348  23.848  1.00  0.00     0.027 C 
BRANCH  13  14
ATOM     14  C   UNL     1       0.207  -3.731  23.947  1.00  0.00     0.004 C 
BRANCH  14  15
ATOM     15  C   UNL     1       0.368  -4.560  22.662  1.00  0.00     0.000 C 
BRANCH  15  16
ATOM     16  C   UNL     1      -0.070  -3.790  21.404  1.00  0.00     0.000 C 
BRANCH  16  17
ATOM     17  C   UNL     1       1.090  -3.544  20.427  1.00  0.00    -0.000 C 
BRANCH  17  18
ATOM     18  C   UNL     1       0.943  -2.224  19.648  1.00  0.00    -0.000 C 
BRANCH  18  19
ATOM     19  C   UNL     1       2.132  -1.275  19.867  1.00  0.00    -0.003 C 
ATOM     20  C   UNL     1       1.845  -0.203  20.916  1.00  0.00     0.004 C 
ENDBRANCH  18  19
ENDBRANCH  17  18
ENDBRANCH  16  17
ENDBRANCH  15  16
ENDBRANCH  14  15
ENDBRANCH  13  14
ENDBRANCH   2  13
TORSDOF 15
ENDMDL
MODEL 6
REMARK VINA RESULT:    -4.316      1.494      3.648
REMARK INTER + INTRA:         -11.180
REMARK INTER:                  -7.972
REMARK INTRA:                  -3.208
REMARK UNBOUND:                -3.080
REMARK SMILES CCCCCCCCC=CCCCCCCCC(=O)[O-]
REMARK SMILES IDX 10 1 9 2 11 3 12 4 13 5 14 6 15 7 16 8 17 9 18 10 19 11
REMARK SMILES IDX 20 12 8 13 7 14 6 15 5 16 4 17 3 18 2 19 1 20
REMARK H PARENT
REMARK Flexibility Score: inf
ROOT
ATOM      1  C   UNL     1       1.033  -4.680  25.534  1.00  0.00    -0.031 C 
ATOM      2  C   UNL     1       2.076  -5.372  26.030  1.00  0.00    -0.031 C 
ENDROOT
BRANCH   1   3
ATOM      3  C   UNL     1       0.313  -5.027  24.252  1.00  0.00     0.027 C 
BRANCH   3   4
ATOM      4  C   UNL     1       0.197  -3.822  23.299  1.00  0.00     0.004 C 
BRANCH   4   5
ATOM      5  C   UNL     1       0.119  -4.209  21.810  1.00  0.00     0.000 C 
BRANCH   5   6
ATOM      6  C   UNL     1       0.377  -3.060  20.821  1.00  0.00     0.000 C 
BRANCH   6   7
ATOM      7  C   UNL     1       1.501  -3.318  19.799  1.00  0.00     0.000 C 
BRANCH   7   8
ATOM      8  C   UNL     1       2.613  -2.247  19.813  1.00  0.00     0.006 C 
BRANCH   8   9
ATOM      9  C   UNL     1       2.105  -0.868  19.372  1.00  0.00     0.053 C 
BRANCH   9  10
ATOM     10  C   UNL     1       2.361   0.149  20.439  1.00  0.00     0.041 C 
ATOM     11  O   UNL     1       3.211   1.059  20.257  1.00  0.00    -0.550 OA
ATOM     12  O   UNL     1       1.691   0.067  21.653  1.00  0.00    -0.550 OA
ENDBRANCH   9  10
ENDBRANCH   8   9
ENDBRANCH   7   8
ENDBRANCH   6   7
ENDBRANCH   5   6
ENDBRANCH   4   5
ENDBRANCH   3   4
ENDBRANCH   1   3
BRANCH   2  13
ATOM     13  C   UNL     1       2.634  -6.619  25.387  1.00  0.00     0.027 C 
BRANCH  13  14
ATOM     14  C   UNL     1       3.849  -6.287  24.506  1.00  0.00     0.004 C 
BRANCH  14  15
ATOM     15  C   UNL     1       3.530  -6.357  23.004  1.00  0.00     0.000 C 
BRANCH  15  16
ATOM     16  C   UNL     1       3.748  -5.011  22.291  1.00  0.00     0.000 C 
BRANCH  16  17
ATOM     17  C   UNL     1       4.392  -3.956  23.204  1.00  0.00    -0.000 C 
BRANCH  17  18
ATOM     18  C   UNL     1       3.568  -2.658  23.288  1.00  0.00    -0.000 C 
BRANCH  18  19
ATOM     19  C   UNL     1       3.504  -2.092  24.715  1.00  0.00    -0.003 C 
ATOM     20  C   UNL     1       4.547  -2.712  25.643  1.00  0.00     0.004 C 
ENDBRANCH  18  19
ENDBRANCH  17  18
ENDBRANCH  16  17
ENDBRANCH  15  16
ENDBRANCH  14  15
ENDBRANCH  13  14
ENDBRANCH   2  13
TORSDOF 15
ENDMDL
MODEL 7
REMARK VINA RESULT:    -4.310     12.252     14.778
REMARK INTER + INTRA:         -11.168
REMARK INTER:                  -8.315
REMARK INTRA:                  -2.853
REMARK UNBOUND:                -3.080
REMARK SMILES CCCCCCCCC=CCCCCCCCC(=O)[O-]
REMARK SMILES IDX 10 1 9 2 11 3 12 4 13 5 14 6 15 7 16 8 17 9 18 10 19 11
REMARK SMILES IDX 20 12 8 13 7 14 6 15 5 16 4 17 3 18 2 19 1 20
REMARK H PARENT
REMARK Flexibility Score: inf
ROOT
ATOM      1  C   UNL     1      16.575  -6.670  28.348  1.00  0.00    -0.031 C 
ATOM      2  C   UNL     1      17.569  -6.747  27.443  1.00  0.00    -0.031 C 
ENDROOT
BRANCH   1   3
ATOM      3  C   UNL     1      15.225  -7.327  28.188  1.00  0.00     0.027 C 
BRANCH   3   4
ATOM      4  C   UNL     1      14.149  -6.343  27.688  1.00  0.00     0.004 C 
BRANCH   4   5
ATOM      5  C   UNL     1      13.750  -6.550  26.215  1.00  0.00     0.000 C 
BRANCH   5   6
ATOM      6  C   UNL     1      13.711  -8.016  25.748  1.00  0.00     0.000 C 
BRANCH   6   7
ATOM      7  C   UNL     1      14.059  -8.237  24.263  1.00  0.00     0.000 C 
BRANCH   7   8
ATOM      8  C   UNL     1      13.785  -7.007  23.370  1.00  0.00     0.006 C 
BRANCH   8   9
ATOM      9  C   UNL     1      14.028  -7.296  21.883  1.00  0.00     0.053 C 
BRANCH   9  10
ATOM     10  C   UNL     1      12.754  -7.165  21.110  1.00  0.00     0.041 C 
ATOM     11  O   UNL     1      12.683  -7.588  19.927  1.00  0.00    -0.550 OA
ATOM     12  O   UNL     1      11.655  -6.538  21.683  1.00  0.00    -0.550 OA
ENDBRANCH   9  10
ENDBRANCH   8   9
ENDBRANCH   7   8
ENDBRANCH   6   7
ENDBRANCH   5   6
ENDBRANCH   4   5
ENDBRANCH   3   4
ENDBRANCH   1   3
BRANCH   2  13
ATOM     13  C   UNL     1      17.475  -7.544  26.164  1.00  0.00     0.027 C 
BRANCH  13  14
ATOM     14  C   UNL     1      17.321  -6.618  24.948  1.00  0.00     0.004 C 
BRANCH  14  15
ATOM     15  C   UNL     1      17.507  -5.134  25.305  1.00  0.00     0.000 C 
BRANCH  15  16
ATOM     16  C   UNL     1      16.243  -4.299  25.036  1.00  0.00     0.000 C 
BRANCH  16  17
ATOM     17  C   UNL     1      16.228  -2.979  25.823  1.00  0.00    -0.000 C 
BRANCH  17  18
ATOM     18  C   UNL     1      16.998  -3.070  27.153  1.00  0.00    -0.000 C 
BRANCH  18  19
ATOM     19  C   UNL     1      16.066  -3.096  28.373  1.00  0.00    -0.003 C 
ATOM     20  C   UNL     1      16.619  -2.303  29.555  1.00  0.00     0.004 C 
ENDBRANCH  18  19
ENDBRANCH  17  18
ENDBRANCH  16  17
ENDBRANCH  15  16
ENDBRANCH  14  15
ENDBRANCH  13  14
ENDBRANCH   2  13
TORSDOF 15
ENDMDL
MODEL 8
REMARK VINA RESULT:    -4.286     12.640     15.048
REMARK INTER + INTRA:         -11.124
REMARK INTER:                  -8.105
REMARK INTRA:                  -3.019
REMARK UNBOUND:                -3.080
REMARK SMILES CCCCCCCCC=CCCCCCCCC(=O)[O-]
REMARK SMILES IDX 10 1 9 2 11 3 12 4 13 5 14 6 15 7 16 8 17 9 18 10 19 11
REMARK SMILES IDX 20 12 8 13 7 14 6 15 5 16 4 17 3 18 2 19 1 20
REMARK H PARENT
REMARK Flexibility Score: inf
ROOT
ATOM      1  C   UNL     1      15.157  -7.560  27.289  1.00  0.00    -0.031 C 
ATOM      2  C   UNL     1      14.162  -6.682  27.066  1.00  0.00    -0.031 C 
ENDROOT
BRANCH   1   3
ATOM      3  C   UNL     1      16.479  -7.206  27.927  1.00  0.00     0.027 C 
BRANCH   3   4
ATOM      4  C   UNL     1      17.557  -6.847  26.885  1.00  0.00     0.004 C 
BRANCH   4   5
ATOM      5  C   UNL     1      17.302  -7.451  25.491  1.00  0.00     0.000 C 
BRANCH   5   6
ATOM      6  C   UNL     1      17.484  -6.478  24.314  1.00  0.00     0.000 C 
BRANCH   6   7
ATOM      7  C   UNL     1      16.204  -6.184  23.507  1.00  0.00     0.000 C 
BRANCH   7   8
ATOM      8  C   UNL     1      15.179  -7.338  23.524  1.00  0.00     0.006 C 
BRANCH   8   9
ATOM      9  C   UNL     1      13.729  -6.835  23.512  1.00  0.00     0.053 C 
BRANCH   9  10
ATOM     10  C   UNL     1      13.093  -7.105  22.185  1.00  0.00     0.041 C 
ATOM     11  O   UNL     1      13.670  -7.841  21.344  1.00  0.00    -0.550 OA
ATOM     12  O   UNL     1      11.880  -6.510  21.862  1.00  0.00    -0.550 OA
ENDBRANCH   9  10
ENDBRANCH   8   9
ENDBRANCH   7   8
ENDBRANCH   6   7
ENDBRANCH   5   6
ENDBRANCH   4   5
ENDBRANCH   3   4
ENDBRANCH   1   3
BRANCH   2  13
ATOM     13  C   UNL     1      14.223  -5.228  27.470  1.00  0.00     0.027 C 
BRANCH  13  14
ATOM     14  C   UNL     1      14.633  -4.344  26.283  1.00  0.00     0.004 C 
BRANCH  14  15
ATOM     15  C   UNL     1      15.425  -3.099  26.715  1.00  0.00     0.000 C 
BRANCH  15  16
ATOM     16  C   UNL     1      16.939  -3.359  26.791  1.00  0.00     0.000 C 
BRANCH  16  17
ATOM     17  C   UNL     1      17.538  -2.970  28.152  1.00  0.00    -0.000 C 
BRANCH  17  18
ATOM     18  C   UNL     1      16.518  -2.279  29.075  1.00  0.00    -0.000 C 
BRANCH  18  19
ATOM     19  C   UNL     1      16.510  -2.872  30.493  1.00  0.00    -0.003 C 
ATOM     20  C   UNL     1      16.183  -4.363  30.506  1.00  0.00     0.004 C 
ENDBRANCH  18  19
ENDBRANCH  17  18
ENDBRANCH  16  17
ENDBRANCH  15  16
ENDBRANCH  14  15
ENDBRANCH  13  14
ENDBRANCH   2  13
TORSDOF 15
ENDMDL
MODEL 9
REMARK VINA RESULT:    -4.279      1.103      2.703
REMARK INTER + INTRA:         -11.110
REMARK INTER:                  -8.174
REMARK INTRA:                  -2.936
REMARK UNBOUND:                -3.080
REMARK SMILES CCCCCCCCC=CCCCCCCCC(=O)[O-]
REMARK SMILES IDX 10 1 9 2 11 3 12 4 13 5 14 6 15 7 16 8 17 9 18 10 19 11
REMARK SMILES IDX 20 12 8 13 7 14 6 15 5 16 4 17 3 18 2 19 1 20
REMARK H PARENT
REMARK Flexibility Score: inf
ROOT
ATOM      1  C   UNL     1       1.276  -3.366  20.554  1.00  0.00    -0.031 C 
ATOM      2  C   UNL     1       0.178  -3.581  21.303  1.00  0.00    -0.031 C 
ENDROOT
BRANCH   1   3
ATOM      3  C   UNL     1       2.653  -3.884  20.893  1.00  0.00     0.027 C 
BRANCH   3   4
ATOM      4  C   UNL     1       3.599  -2.766  21.373  1.00  0.00     0.004 C 
BRANCH   4   5
ATOM      5  C   UNL     1       3.459  -2.430  22.870  1.00  0.00     0.000 C 
BRANCH   5   6
ATOM      6  C   UNL     1       3.342  -0.931  23.195  1.00  0.00     0.000 C 
BRANCH   6   7
ATOM      7  C   UNL     1       1.903  -0.380  23.229  1.00  0.00     0.000 C 
BRANCH   7   8
ATOM      8  C   UNL     1       1.402   0.135  21.863  1.00  0.00     0.006 C 
BRANCH   8   9
ATOM      9  C   UNL     1       2.378   1.126  21.215  1.00  0.00     0.053 C 
BRANCH   9  10
ATOM     10  C   UNL     1       2.883   0.588  19.914  1.00  0.00     0.041 C 
ATOM     11  O   UNL     1       2.132  -0.107  19.181  1.00  0.00    -0.550 OA
ATOM     12  O   UNL     1       4.199   0.817  19.531  1.00  0.00    -0.550 OA
ENDBRANCH   9  10
ENDBRANCH   8   9
ENDBRANCH   7   8
ENDBRANCH   6   7
ENDBRANCH   5   6
ENDBRANCH   4   5
ENDBRANCH   3   4
ENDBRANCH   1   3
BRANCH   2  13
ATOM     13  C   UNL     1       0.174  -4.412  22.563  1.00  0.00     0.027 C 
BRANCH  13  14
ATOM     14  C   UNL     1       0.095  -3.520  23.811  1.00  0.00     0.004 C 
BRANCH  14  15
ATOM     15  C   UNL     1       0.928  -4.062  24.984  1.00  0.00     0.000 C 
BRANCH  15  16
ATOM     16  C   UNL     1       1.000  -5.599  24.996  1.00  0.00     0.000 C 
BRANCH  16  17
ATOM     17  C   UNL     1       2.437  -6.121  25.150  1.00  0.00    -0.000 C 
BRANCH  17  18
ATOM     18  C   UNL     1       3.223  -6.100  23.827  1.00  0.00    -0.000 C 
BRANCH  18  19
ATOM     19  C   UNL     1       4.680  -5.650  24.014  1.00  0.00    -0.003 C 
ATOM     20  C   UNL     1       5.279  -6.125  25.336  1.00  0.00     0.004 C 
ENDBRANCH  18  19
ENDBRANCH  17  18
ENDBRANCH  16  17
ENDBRANCH  15  16
ENDBRANCH  14  15
ENDBRANCH  13  14
ENDBRANCH   2  13
TORSDOF 15
ENDMDL
