MODEL 1
REMARK VINA RESULT:    28.156      0.000      0.000
REMARK INTER + INTRA:          34.458
REMARK INTER:                  34.740
REMARK INTRA:                  -0.281
REMARK UNBOUND:                -0.281
REMARK SMILES Oc1cc(O)c2cc(O)c(-c3cc(O)c(O)c(O)c3)[o+]c2c1
REMARK SMILES IDX 10 1 20 2 21 3 22 4 2 5 3 6 4 7 6 8 7 9 8 10 11 11 12 12
REMARK SMILES IDX 13 13 19 14 15 15 17 16 14 17 16 19 18 21 9 23 1 25 5 27
REMARK H PARENT 14 18 16 20 18 22 9 24 1 26 5 28
REMARK Flexibility Score: inf
ROOT
ATOM      1  C   UNL     1     -33.190  31.671  -2.676  1.00  0.00     0.402 A 
ATOM      2  O   UNL     1     -34.131  31.295  -3.539  1.00  0.00    -0.202 OA
ATOM      3  C   UNL     1     -35.374  30.993  -3.178  1.00  0.00     0.368 A 
ATOM      4  C   UNL     1     -36.292  30.611  -4.159  1.00  0.00     0.162 A 
ATOM      5  C   UNL     1     -37.605  30.291  -3.810  1.00  0.00     0.128 A 
ATOM      6  C   UNL     1     -38.005  30.354  -2.470  1.00  0.00     0.093 A 
ATOM      7  C   UNL     1     -37.104  30.734  -1.469  1.00  0.00     0.136 A 
ATOM      8  C   UNL     1     -35.767  31.057  -1.820  1.00  0.00     0.125 A 
ATOM      9  C   UNL     1     -34.793  31.436  -0.882  1.00  0.00     0.078 A 
ATOM     10  C   UNL     1     -33.493  31.736  -1.303  1.00  0.00     0.223 A 
ENDROOT
BRANCH   1  11
ATOM     11  C   UNL     1     -31.844  31.993  -3.202  1.00  0.00     0.091 A 
ATOM     12  C   UNL     1     -30.785  31.098  -2.979  1.00  0.00     0.068 A 
ATOM     13  C   UNL     1     -29.508  31.365  -3.480  1.00  0.00     0.162 A 
ATOM     14  C   UNL     1     -31.614  33.147  -3.969  1.00  0.00     0.068 A 
ATOM     15  C   UNL     1     -29.277  32.531  -4.229  1.00  0.00     0.200 A 
ATOM     16  C   UNL     1     -30.337  33.421  -4.476  1.00  0.00     0.162 A 
BRANCH  13  17
ATOM     17  O   UNL     1     -28.480  30.458  -3.223  1.00  0.00    -0.504 OA
ATOM     18  H   UNL     1     -28.548  29.480  -3.480  1.00  0.00     0.293 HD
ENDBRANCH  13  17
BRANCH  15  19
ATOM     19  O   UNL     1     -27.998  32.791  -4.723  1.00  0.00    -0.502 OA
ATOM     20  H   UNL     1     -27.484  32.114  -5.274  1.00  0.00     0.293 HD
ENDBRANCH  15  19
BRANCH  16  21
ATOM     21  O   UNL     1     -30.117  34.573  -5.231  1.00  0.00    -0.504 OA
ATOM     22  H   UNL     1     -30.703  34.808  -6.024  1.00  0.00     0.293 HD
ENDBRANCH  16  21
ENDBRANCH   1  11
BRANCH  10  23
ATOM     23  O   UNL     1     -32.512  32.063  -0.367  1.00  0.00    -0.500 OA
ATOM     24  H   UNL     1     -32.631  31.868   0.621  1.00  0.00     0.294 HD
ENDBRANCH  10  23
BRANCH   5  25
ATOM     25  O   UNL     1     -38.506  29.912  -4.803  1.00  0.00    -0.507 OA
ATOM     26  H   UNL     1     -39.245  30.533  -5.113  1.00  0.00     0.293 HD
ENDBRANCH   5  25
BRANCH   7  27
ATOM     27  O   UNL     1     -37.581  30.775  -0.155  1.00  0.00    -0.507 OA
ATOM     28  H   UNL     1     -38.096  31.547   0.240  1.00  0.00     0.293 HD
ENDBRANCH   7  27
TORSDOF 7
ENDMDL
