MODEL 1
REMARK VINA RESULT:    -3.239      0.000      0.000
REMARK INTER + INTRA:          -5.935
REMARK INTER:                  -5.132
REMARK INTRA:                  -0.803
REMARK UNBOUND:                -0.803
REMARK SMILES CCCCCCCCCCCC(=O)[O-]
REMARK SMILES IDX 7 1 8 2 9 3 10 4 11 5 12 6 13 7 14 8 6 9 5 10 4 11 3 12 2 13
REMARK SMILES IDX 1 14
REMARK H PARENT
REMARK Flexibility Score: inf
ROOT
ATOM      1  C   UNL     1     143.507 140.300 144.696  1.00  0.00     0.000 C 
ENDROOT
BRANCH   1   2
ATOM      2  C   UNL     1     144.549 141.400 144.933  1.00  0.00     0.000 C 
BRANCH   2   3
ATOM      3  C   UNL     1     144.198 142.671 144.147  1.00  0.00     0.000 C 
BRANCH   3   4
ATOM      4  C   UNL     1     145.261 143.046 143.099  1.00  0.00     0.006 C 
BRANCH   4   5
ATOM      5  C   UNL     1     144.773 144.061 142.049  1.00  0.00     0.053 C 
BRANCH   5   6
ATOM      6  C   UNL     1     145.617 144.065 140.811  1.00  0.00     0.041 C 
ATOM      7  O   UNL     1     146.332 143.068 140.526  1.00  0.00    -0.550 OA
ATOM      8  O   UNL     1     145.588 145.158 139.954  1.00  0.00    -0.550 OA
ENDBRANCH   5   6
ENDBRANCH   4   5
ENDBRANCH   3   4
ENDBRANCH   2   3
ENDBRANCH   1   2
BRANCH   1   9
ATOM      9  C   UNL     1     142.466 140.273 145.825  1.00  0.00     0.000 C 
BRANCH   9  10
ATOM     10  C   UNL     1     141.161 140.998 145.434  1.00  0.00    -0.000 C 
BRANCH  10  11
ATOM     11  C   UNL     1     140.925 142.305 146.211  1.00  0.00    -0.000 C 
BRANCH  11  12
ATOM     12  C   UNL     1     141.955 142.528 147.330  1.00  0.00    -0.000 C 
BRANCH  12  13
ATOM     13  C   UNL     1     141.339 142.406 148.731  1.00  0.00    -0.003 C 
ATOM     14  C   UNL     1     141.749 141.120 149.448  1.00  0.00     0.004 C 
ENDBRANCH  12  13
ENDBRANCH  11  12
ENDBRANCH  10  11
ENDBRANCH   9  10
ENDBRANCH   1   9
TORSDOF 10
ENDMDL
MODEL 2
REMARK VINA RESULT:    -3.119      1.439      1.987
REMARK INTER + INTRA:          -5.745
REMARK INTER:                  -4.610
REMARK INTRA:                  -1.135
REMARK UNBOUND:                -0.803
REMARK SMILES CCCCCCCCCCCC(=O)[O-]
REMARK SMILES IDX 7 1 8 2 9 3 10 4 11 5 12 6 13 7 14 8 6 9 5 10 4 11 3 12 2 13
REMARK SMILES IDX 1 14
REMARK H PARENT
REMARK Flexibility Score: inf
ROOT
ATOM      1  C   UNL     1     144.283 140.772 144.387  1.00  0.00     0.000 C 
ENDROOT
BRANCH   1   2
ATOM      2  C   UNL     1     145.180 142.013 144.318  1.00  0.00     0.000 C 
BRANCH   2   3
ATOM      3  C   UNL     1     144.603 143.059 143.354  1.00  0.00     0.000 C 
BRANCH   3   4
ATOM      4  C   UNL     1     145.276 144.437 143.483  1.00  0.00     0.006 C 
BRANCH   4   5
ATOM      5  C   UNL     1     146.272 144.755 142.353  1.00  0.00     0.053 C 
BRANCH   5   6
ATOM      6  C   UNL     1     146.174 143.794 141.207  1.00  0.00     0.041 C 
ATOM      7  O   UNL     1     145.369 144.011 140.263  1.00  0.00    -0.550 OA
ATOM      8  O   UNL     1     146.997 142.676 141.165  1.00  0.00    -0.550 OA
ENDBRANCH   5   6
ENDBRANCH   4   5
ENDBRANCH   3   4
ENDBRANCH   2   3
ENDBRANCH   1   2
BRANCH   1   9
ATOM      9  C   UNL     1     144.026 140.356 145.843  1.00  0.00     0.000 C 
BRANCH   9  10
ATOM     10  C   UNL     1     142.539 140.039 146.107  1.00  0.00    -0.000 C 
BRANCH  10  11
ATOM     11  C   UNL     1     141.569 140.983 145.375  1.00  0.00    -0.000 C 
BRANCH  11  12
ATOM     12  C   UNL     1     141.120 142.168 146.245  1.00  0.00    -0.000 C 
BRANCH  12  13
ATOM     13  C   UNL     1     141.859 143.468 145.894  1.00  0.00    -0.003 C 
ATOM     14  C   UNL     1     142.999 143.779 146.864  1.00  0.00     0.004 C 
ENDBRANCH  12  13
ENDBRANCH  11  12
ENDBRANCH  10  11
ENDBRANCH   9  10
ENDBRANCH   1   9
TORSDOF 10
ENDMDL
MODEL 3
REMARK VINA RESULT:    -3.092      5.155      7.112
REMARK INTER + INTRA:          -5.703
REMARK INTER:                  -4.191
REMARK INTRA:                  -1.511
REMARK UNBOUND:                -0.803
REMARK SMILES CCCCCCCCCCCC(=O)[O-]
REMARK SMILES IDX 7 1 8 2 9 3 10 4 11 5 12 6 13 7 14 8 6 9 5 10 4 11 3 12 2 13
REMARK SMILES IDX 1 14
REMARK H PARENT
REMARK Flexibility Score: inf
ROOT
ATOM      1  C   UNL     1     144.426 141.159 147.612  1.00  0.00     0.000 C 
ENDROOT
BRANCH   1   2
ATOM      2  C   UNL     1     143.928 141.003 149.054  1.00  0.00     0.000 C 
BRANCH   2   3
ATOM      3  C   UNL     1     142.545 140.339 149.093  1.00  0.00     0.000 C 
BRANCH   3   4
ATOM      4  C   UNL     1     141.437 141.279 149.602  1.00  0.00     0.006 C 
BRANCH   4   5
ATOM      5  C   UNL     1     141.803 142.034 150.893  1.00  0.00     0.053 C 
BRANCH   5   6
ATOM      6  C   UNL     1     140.758 143.028 151.299  1.00  0.00     0.041 C 
ATOM      7  O   UNL     1     140.655 144.126 150.691  1.00  0.00    -0.550 OA
ATOM      8  O   UNL     1     139.875 142.727 152.328  1.00  0.00    -0.550 OA
ENDBRANCH   5   6
ENDBRANCH   4   5
ENDBRANCH   3   4
ENDBRANCH   2   3
ENDBRANCH   1   2
BRANCH   1   9
ATOM      9  C   UNL     1     143.692 140.195 146.668  1.00  0.00     0.000 C 
BRANCH   9  10
ATOM     10  C   UNL     1     143.014 140.931 145.493  1.00  0.00    -0.000 C 
BRANCH  10  11
ATOM     11  C   UNL     1     141.478 140.851 145.520  1.00  0.00    -0.000 C 
BRANCH  11  12
ATOM     12  C   UNL     1     140.822 142.151 146.013  1.00  0.00    -0.000 C 
BRANCH  12  13
ATOM     13  C   UNL     1     141.788 143.344 145.989  1.00  0.00    -0.003 C 
ATOM     14  C   UNL     1     141.837 144.092 147.321  1.00  0.00     0.004 C 
ENDBRANCH  12  13
ENDBRANCH  11  12
ENDBRANCH  10  11
ENDBRANCH   9  10
ENDBRANCH   1   9
TORSDOF 10
ENDMDL
MODEL 4
REMARK VINA RESULT:    -3.062      5.466      8.193
REMARK INTER + INTRA:          -5.654
REMARK INTER:                  -4.843
REMARK INTRA:                  -0.811
REMARK UNBOUND:                -0.803
REMARK SMILES CCCCCCCCCCCC(=O)[O-]
REMARK SMILES IDX 7 1 8 2 9 3 10 4 11 5 12 6 13 7 14 8 6 9 5 10 4 11 3 12 2 13
REMARK SMILES IDX 1 14
REMARK H PARENT
REMARK Flexibility Score: inf
ROOT
ATOM      1  C   UNL     1     142.268 142.634 147.347  1.00  0.00     0.000 C 
ENDROOT
BRANCH   1   2
ATOM      2  C   UNL     1     141.577 142.981 148.672  1.00  0.00     0.000 C 
BRANCH   2   3
ATOM      3  C   UNL     1     141.286 141.715 149.490  1.00  0.00     0.000 C 
BRANCH   3   4
ATOM      4  C   UNL     1     140.729 142.017 150.892  1.00  0.00     0.006 C 
BRANCH   4   5
ATOM      5  C   UNL     1     141.779 142.557 151.880  1.00  0.00     0.053 C 
BRANCH   5   6
ATOM      6  C   UNL     1     141.948 141.680 153.083  1.00  0.00     0.041 C 
ATOM      7  O   UNL     1     142.968 140.950 153.201  1.00  0.00    -0.550 OA
ATOM      8  O   UNL     1     140.993 141.693 154.092  1.00  0.00    -0.550 OA
ENDBRANCH   5   6
ENDBRANCH   4   5
ENDBRANCH   3   4
ENDBRANCH   2   3
ENDBRANCH   1   2
BRANCH   1   9
ATOM      9  C   UNL     1     141.256 142.576 146.194  1.00  0.00     0.000 C 
BRANCH   9  10
ATOM     10  C   UNL     1     141.112 141.153 145.614  1.00  0.00    -0.000 C 
BRANCH  10  11
ATOM     11  C   UNL     1     142.323 140.247 145.897  1.00  0.00    -0.000 C 
BRANCH  11  12
ATOM     12  C   UNL     1     143.236 140.071 144.673  1.00  0.00    -0.000 C 
BRANCH  12  13
ATOM     13  C   UNL     1     144.500 140.939 144.752  1.00  0.00    -0.003 C 
ATOM     14  C   UNL     1     144.333 142.291 144.058  1.00  0.00     0.004 C 
ENDBRANCH  12  13
ENDBRANCH  11  12
ENDBRANCH  10  11
ENDBRANCH   9  10
ENDBRANCH   1   9
TORSDOF 10
ENDMDL
MODEL 5
REMARK VINA RESULT:    -3.045     16.972     18.500
REMARK INTER + INTRA:          -5.627
REMARK INTER:                  -4.425
REMARK INTRA:                  -1.202
REMARK UNBOUND:                -0.803
REMARK SMILES CCCCCCCCCCCC(=O)[O-]
REMARK SMILES IDX 7 1 8 2 9 3 10 4 11 5 12 6 13 7 14 8 6 9 5 10 4 11 3 12 2 13
REMARK SMILES IDX 1 14
REMARK H PARENT
REMARK Flexibility Score: inf
ROOT
ATOM      1  C   UNL     1     140.583 157.550 148.539  1.00  0.00     0.000 C 
ENDROOT
BRANCH   1   2
ATOM      2  C   UNL     1     141.468 158.020 149.700  1.00  0.00     0.000 C 
BRANCH   2   3
ATOM      3  C   UNL     1     141.528 159.553 149.763  1.00  0.00     0.000 C 
BRANCH   3   4
ATOM      4  C   UNL     1     141.371 160.106 151.191  1.00  0.00     0.006 C 
BRANCH   4   5
ATOM      5  C   UNL     1     142.320 159.463 152.218  1.00  0.00     0.053 C 
BRANCH   5   6
ATOM      6  C   UNL     1     141.595 158.882 153.393  1.00  0.00     0.041 C 
ATOM      7  O   UNL     1     141.786 157.683 153.730  1.00  0.00    -0.550 OA
ATOM      8  O   UNL     1     140.731 159.675 154.139  1.00  0.00    -0.550 OA
ENDBRANCH   5   6
ENDBRANCH   4   5
ENDBRANCH   3   4
ENDBRANCH   2   3
ENDBRANCH   1   2
BRANCH   1   9
ATOM      9  C   UNL     1     139.946 158.743 147.812  1.00  0.00     0.000 C 
BRANCH   9  10
ATOM     10  C   UNL     1     140.275 158.753 146.305  1.00  0.00    -0.000 C 
BRANCH  10  11
ATOM     11  C   UNL     1     140.980 160.037 145.835  1.00  0.00    -0.000 C 
BRANCH  11  12
ATOM     12  C   UNL     1     142.439 160.125 146.310  1.00  0.00    -0.000 C 
BRANCH  12  13
ATOM     13  C   UNL     1     143.278 158.920 145.858  1.00  0.00    -0.003 C 
ATOM     14  C   UNL     1     143.994 158.230 147.019  1.00  0.00     0.004 C 
ENDBRANCH  12  13
ENDBRANCH  11  12
ENDBRANCH  10  11
ENDBRANCH   9  10
ENDBRANCH   1   9
TORSDOF 10
ENDMDL
MODEL 6
REMARK VINA RESULT:    -3.003      1.496      3.236
REMARK INTER + INTRA:          -5.561
REMARK INTER:                  -4.300
REMARK INTRA:                  -1.260
REMARK UNBOUND:                -0.803
REMARK SMILES CCCCCCCCCCCC(=O)[O-]
REMARK SMILES IDX 7 1 8 2 9 3 10 4 11 5 12 6 13 7 14 8 6 9 5 10 4 11 3 12 2 13
REMARK SMILES IDX 1 14
REMARK H PARENT
REMARK Flexibility Score: inf
ROOT
ATOM      1  C   UNL     1     141.789 143.126 146.932  1.00  0.00     0.000 C 
ENDROOT
BRANCH   1   2
ATOM      2  C   UNL     1     142.138 143.605 145.518  1.00  0.00     0.000 C 
BRANCH   2   3
ATOM      3  C   UNL     1     142.916 144.928 145.560  1.00  0.00     0.000 C 
BRANCH   3   4
ATOM      4  C   UNL     1     143.979 145.039 144.452  1.00  0.00     0.006 C 
BRANCH   4   5
ATOM      5  C   UNL     1     144.188 143.739 143.654  1.00  0.00     0.053 C 
BRANCH   5   6
ATOM      6  C   UNL     1     144.903 143.965 142.357  1.00  0.00     0.041 C 
ATOM      7  O   UNL     1     144.785 145.061 141.748  1.00  0.00    -0.550 OA
ATOM      8  O   UNL     1     145.728 142.976 141.836  1.00  0.00    -0.550 OA
ENDBRANCH   5   6
ENDBRANCH   4   5
ENDBRANCH   3   4
ENDBRANCH   2   3
ENDBRANCH   1   2
BRANCH   1   9
ATOM      9  C   UNL     1     141.234 141.694 146.909  1.00  0.00     0.000 C 
BRANCH   9  10
ATOM     10  C   UNL     1     141.458 141.003 145.548  1.00  0.00    -0.000 C 
BRANCH  10  11
ATOM     11  C   UNL     1     142.550 139.920 145.579  1.00  0.00    -0.000 C 
BRANCH  11  12
ATOM     12  C   UNL     1     143.600 140.099 144.470  1.00  0.00    -0.000 C 
BRANCH  12  13
ATOM     13  C   UNL     1     145.008 140.355 145.028  1.00  0.00    -0.003 C 
ATOM     14  C   UNL     1     144.986 140.996 146.415  1.00  0.00     0.004 C 
ENDBRANCH  12  13
ENDBRANCH  11  12
ENDBRANCH  10  11
ENDBRANCH   9  10
ENDBRANCH   1   9
TORSDOF 10
ENDMDL
MODEL 7
REMARK VINA RESULT:    -2.974      2.938      4.835
REMARK INTER + INTRA:          -5.515
REMARK INTER:                  -5.049
REMARK INTRA:                  -0.466
REMARK UNBOUND:                -0.803
REMARK SMILES CCCCCCCCCCCC(=O)[O-]
REMARK SMILES IDX 7 1 8 2 9 3 10 4 11 5 12 6 13 7 14 8 6 9 5 10 4 11 3 12 2 13
REMARK SMILES IDX 1 14
REMARK H PARENT
REMARK Flexibility Score: inf
ROOT
ATOM      1  C   UNL     1     142.305 142.267 147.614  1.00  0.00     0.000 C 
ENDROOT
BRANCH   1   2
ATOM      2  C   UNL     1     141.530 142.482 146.309  1.00  0.00     0.000 C 
BRANCH   2   3
ATOM      3  C   UNL     1     141.155 141.142 145.661  1.00  0.00     0.000 C 
BRANCH   3   4
ATOM      4  C   UNL     1     142.272 140.088 145.764  1.00  0.00     0.006 C 
BRANCH   4   5
ATOM      5  C   UNL     1     143.221 140.063 144.552  1.00  0.00     0.053 C 
BRANCH   5   6
ATOM      6  C   UNL     1     144.512 140.777 144.813  1.00  0.00     0.041 C 
ATOM      7  O   UNL     1     145.007 140.795 145.971  1.00  0.00    -0.550 OA
ATOM      8  O   UNL     1     145.187 141.396 143.768  1.00  0.00    -0.550 OA
ENDBRANCH   5   6
ENDBRANCH   4   5
ENDBRANCH   3   4
ENDBRANCH   2   3
ENDBRANCH   1   2
BRANCH   1   9
ATOM      9  C   UNL     1     141.361 141.858 148.755  1.00  0.00     0.000 C 
BRANCH   9  10
ATOM     10  C   UNL     1     141.500 142.777 149.987  1.00  0.00    -0.000 C 
BRANCH  10  11
ATOM     11  C   UNL     1     140.702 142.294 151.210  1.00  0.00    -0.000 C 
BRANCH  11  12
ATOM     12  C   UNL     1     141.564 142.178 152.477  1.00  0.00    -0.000 C 
BRANCH  12  13
ATOM     13  C   UNL     1     140.747 141.762 153.709  1.00  0.00    -0.003 C 
ATOM     14  C   UNL     1     140.093 142.950 154.414  1.00  0.00     0.004 C 
ENDBRANCH  12  13
ENDBRANCH  11  12
ENDBRANCH  10  11
ENDBRANCH   9  10
ENDBRANCH   1   9
TORSDOF 10
ENDMDL
MODEL 8
REMARK VINA RESULT:    -2.945      6.164      8.442
REMARK INTER + INTRA:          -5.469
REMARK INTER:                  -4.657
REMARK INTRA:                  -0.812
REMARK UNBOUND:                -0.803
REMARK SMILES CCCCCCCCCCCC(=O)[O-]
REMARK SMILES IDX 7 1 8 2 9 3 10 4 11 5 12 6 13 7 14 8 6 9 5 10 4 11 3 12 2 13
REMARK SMILES IDX 1 14
REMARK H PARENT
REMARK Flexibility Score: inf
ROOT
ATOM      1  C   UNL     1     143.775 141.069 149.054  1.00  0.00     0.000 C 
ENDROOT
BRANCH   1   2
ATOM      2  C   UNL     1     142.343 140.625 149.375  1.00  0.00     0.000 C 
BRANCH   2   3
ATOM      3  C   UNL     1     141.605 141.692 150.196  1.00  0.00     0.000 C 
BRANCH   3   4
ATOM      4  C   UNL     1     142.151 141.838 151.628  1.00  0.00     0.006 C 
BRANCH   4   5
ATOM      5  C   UNL     1     141.518 142.993 152.424  1.00  0.00     0.053 C 
BRANCH   5   6
ATOM      6  C   UNL     1     141.066 142.575 153.790  1.00  0.00     0.041 C 
ATOM      7  O   UNL     1     141.055 141.357 154.112  1.00  0.00    -0.550 OA
ATOM      8  O   UNL     1     140.689 143.534 154.721  1.00  0.00    -0.550 OA
ENDBRANCH   5   6
ENDBRANCH   4   5
ENDBRANCH   3   4
ENDBRANCH   2   3
ENDBRANCH   1   2
BRANCH   1   9
ATOM      9  C   UNL     1     144.309 140.352 147.805  1.00  0.00     0.000 C 
BRANCH   9  10
ATOM     10  C   UNL     1     143.175 139.903 146.860  1.00  0.00    -0.000 C 
BRANCH  10  11
ATOM     11  C   UNL     1     143.296 140.474 145.436  1.00  0.00    -0.000 C 
BRANCH  11  12
ATOM     12  C   UNL     1     142.689 141.880 145.303  1.00  0.00    -0.000 C 
BRANCH  12  13
ATOM     13  C   UNL     1     141.437 142.064 146.173  1.00  0.00    -0.003 C 
ATOM     14  C   UNL     1     140.182 141.470 145.536  1.00  0.00     0.004 C 
ENDBRANCH  12  13
ENDBRANCH  11  12
ENDBRANCH  10  11
ENDBRANCH   9  10
ENDBRANCH   1   9
TORSDOF 10
ENDMDL
MODEL 9
REMARK VINA RESULT:    -2.916      3.307      4.303
REMARK INTER + INTRA:          -5.423
REMARK INTER:                  -3.880
REMARK INTRA:                  -1.544
REMARK UNBOUND:                -0.803
REMARK SMILES CCCCCCCCCCCC(=O)[O-]
REMARK SMILES IDX 7 1 8 2 9 3 10 4 11 5 12 6 13 7 14 8 6 9 5 10 4 11 3 12 2 13
REMARK SMILES IDX 1 14
REMARK H PARENT
REMARK Flexibility Score: inf
ROOT
ATOM      1  C   UNL     1     142.126 140.196 145.450  1.00  0.00     0.000 C 
ENDROOT
BRANCH   1   2
ATOM      2  C   UNL     1     141.137 141.366 145.513  1.00  0.00     0.000 C 
BRANCH   2   3
ATOM      3  C   UNL     1     140.986 141.884 146.951  1.00  0.00     0.000 C 
BRANCH   3   4
ATOM      4  C   UNL     1     141.557 143.299 147.147  1.00  0.00     0.006 C 
BRANCH   4   5
ATOM      5  C   UNL     1     142.069 143.953 145.850  1.00  0.00     0.053 C 
BRANCH   5   6
ATOM      6  C   UNL     1     143.367 144.676 146.039  1.00  0.00     0.041 C 
ATOM      7  O   UNL     1     143.535 145.822 145.544  1.00  0.00    -0.550 OA
ATOM      8  O   UNL     1     144.382 144.098 146.791  1.00  0.00    -0.550 OA
ENDBRANCH   5   6
ENDBRANCH   4   5
ENDBRANCH   3   4
ENDBRANCH   2   3
ENDBRANCH   1   2
BRANCH   1   9
ATOM      9  C   UNL     1     143.474 140.642 144.866  1.00  0.00     0.000 C 
BRANCH   9  10
ATOM     10  C   UNL     1     144.579 140.719 145.940  1.00  0.00    -0.000 C 
BRANCH  10  11
ATOM     11  C   UNL     1     144.248 139.938 147.223  1.00  0.00    -0.000 C 
BRANCH  11  12
ATOM     12  C   UNL     1     144.226 140.828 148.475  1.00  0.00    -0.000 C 
BRANCH  12  13
ATOM     13  C   UNL     1     143.255 140.312 149.548  1.00  0.00    -0.003 C 
ATOM     14  C   UNL     1     142.552 141.441 150.300  1.00  0.00     0.004 C 
ENDBRANCH  12  13
ENDBRANCH  11  12
ENDBRANCH  10  11
ENDBRANCH   9  10
ENDBRANCH   1   9
TORSDOF 10
ENDMDL
