MODEL 1
REMARK VINA RESULT:    -4.513      0.000      0.000
REMARK INTER + INTRA:          -5.754
REMARK INTER:                  -5.437
REMARK INTRA:                  -0.318
REMARK UNBOUND:                -0.318
REMARK SMILES O=c1c(O)c(-c2ccc(O)c(O)c2)oc2cc(O)cc(O)c12
REMARK SMILES IDX 5 1 3 2 2 3 1 4 22 5 20 6 19 7 17 8 16 9 15 10 14 11 6 12
REMARK SMILES IDX 7 13 8 14 9 15 13 16 11 17 10 18 12 20 4 22 21 24 18 26
REMARK H PARENT 10 19 12 21 4 23 21 25 18 27
REMARK Flexibility Score: inf
ROOT
ATOM      1  C   UNL     1      -4.892  -7.918   8.513  1.00  0.00     0.180 A 
ATOM      2  C   UNL     1      -4.699  -6.629   9.040  1.00  0.00     0.208 A 
ATOM      3  C   UNL     1      -3.393  -6.197   9.322  1.00  0.00     0.238 A 
ATOM      4  O   UNL     1      -3.223  -5.024   9.742  1.00  0.00    -0.285 OA
ATOM      5  C   UNL     1      -2.299  -7.065   9.089  1.00  0.00     0.111 A 
ATOM      6  C   UNL     1      -0.938  -6.745   9.376  1.00  0.00     0.134 A 
ATOM      7  C   UNL     1       0.076  -7.629   8.983  1.00  0.00     0.093 A 
ATOM      8  C   UNL     1      -0.228  -8.849   8.373  1.00  0.00     0.123 A 
ATOM      9  C   UNL     1      -1.557  -9.194   8.143  1.00  0.00     0.094 A 
ATOM     10  C   UNL     1      -2.588  -8.318   8.491  1.00  0.00     0.146 A 
ATOM     11  O   UNL     1      -3.841  -8.683   8.244  1.00  0.00    -0.452 OA
ENDROOT
BRANCH   1  12
ATOM     12  C   UNL     1      -6.240  -8.453   8.214  1.00  0.00     0.025 A 
ATOM     13  C   UNL     1      -6.995  -9.040   9.241  1.00  0.00     0.016 A 
ATOM     14  C   UNL     1      -8.277  -9.533   8.984  1.00  0.00     0.051 A 
ATOM     15  C   UNL     1      -8.829  -9.433   7.700  1.00  0.00     0.157 A 
ATOM     16  C   UNL     1      -6.806  -8.335   6.930  1.00  0.00     0.062 A 
ATOM     17  C   UNL     1      -8.091  -8.826   6.671  1.00  0.00     0.158 A 
BRANCH  15  18
ATOM     18  O   UNL     1     -10.108  -9.927   7.447  1.00  0.00    -0.504 OA
ATOM     19  H   UNL     1     -10.385 -10.857   7.737  1.00  0.00     0.293 HD
ENDBRANCH  15  18
BRANCH  17  20
ATOM     20  O   UNL     1      -8.617  -8.698   5.386  1.00  0.00    -0.504 OA
ATOM     21  H   UNL     1      -9.062  -7.845   5.069  1.00  0.00     0.293 HD
ENDBRANCH  17  20
ENDBRANCH   1  12
BRANCH   2  22
ATOM     22  O   UNL     1      -5.792  -5.781   9.242  1.00  0.00    -0.502 OA
ATOM     23  H   UNL     1      -5.684  -4.801   9.469  1.00  0.00     0.293 HD
ENDBRANCH   2  22
BRANCH   6  24
ATOM     24  O   UNL     1      -0.532  -5.597  10.063  1.00  0.00    -0.507 OA
ATOM     25  H   UNL     1      -0.592  -5.475  11.062  1.00  0.00     0.293 HD
ENDBRANCH   6  24
BRANCH   8  26
ATOM     26  O   UNL     1       0.786  -9.728   8.000  1.00  0.00    -0.508 OA
ATOM     27  H   UNL     1       0.664 -10.733   8.058  1.00  0.00     0.293 HD
ENDBRANCH   8  26
TORSDOF 6
ENDMDL
MODEL 2
REMARK VINA RESULT:    -4.513      1.840      3.062
REMARK INTER + INTRA:          -5.754
REMARK INTER:                  -5.438
REMARK INTRA:                  -0.316
REMARK UNBOUND:                -0.318
REMARK SMILES O=c1c(O)c(-c2ccc(O)c(O)c2)oc2cc(O)cc(O)c12
REMARK SMILES IDX 5 1 3 2 2 3 1 4 22 5 20 6 19 7 17 8 16 9 15 10 14 11 6 12
REMARK SMILES IDX 7 13 8 14 9 15 13 16 11 17 10 18 12 20 4 22 21 24 18 26
REMARK H PARENT 10 19 12 21 4 23 21 25 18 27
REMARK Flexibility Score: inf
ROOT
ATOM      1  C   UNL     1      -4.228  -7.778   8.613  1.00  0.00     0.180 A 
ATOM      2  C   UNL     1      -3.690  -8.887   7.936  1.00  0.00     0.208 A 
ATOM      3  C   UNL     1      -2.298  -8.973   7.770  1.00  0.00     0.238 A 
ATOM      4  O   UNL     1      -1.819  -9.994   7.212  1.00  0.00    -0.285 OA
ATOM      5  C   UNL     1      -1.464  -7.943   8.267  1.00  0.00     0.111 A 
ATOM      6  C   UNL     1      -0.045  -7.909   8.120  1.00  0.00     0.134 A 
ATOM      7  C   UNL     1       0.693  -6.908   8.765  1.00  0.00     0.093 A 
ATOM      8  C   UNL     1       0.055  -5.904   9.498  1.00  0.00     0.123 A 
ATOM      9  C   UNL     1      -1.333  -5.896   9.599  1.00  0.00     0.094 A 
ATOM     10  C   UNL     1      -2.094  -6.901   8.996  1.00  0.00     0.146 A 
ATOM     11  O   UNL     1      -3.414  -6.861   9.125  1.00  0.00    -0.452 OA
ENDROOT
BRANCH   1  12
ATOM     12  C   UNL     1      -5.685  -7.603   8.806  1.00  0.00     0.025 A 
ATOM     13  C   UNL     1      -6.312  -8.197   9.912  1.00  0.00     0.016 A 
ATOM     14  C   UNL     1      -7.682  -8.028  10.125  1.00  0.00     0.051 A 
ATOM     15  C   UNL     1      -8.444  -7.249   9.243  1.00  0.00     0.157 A 
ATOM     16  C   UNL     1      -6.449  -6.805   7.934  1.00  0.00     0.062 A 
ATOM     17  C   UNL     1      -7.822  -6.631   8.146  1.00  0.00     0.158 A 
BRANCH  15  18
ATOM     18  O   UNL     1      -9.812  -7.083   9.457  1.00  0.00    -0.504 OA
ATOM     19  H   UNL     1     -10.200  -7.027  10.391  1.00  0.00     0.293 HD
ENDBRANCH  15  18
BRANCH  17  20
ATOM     20  O   UNL     1      -8.548  -5.839   7.258  1.00  0.00    -0.504 OA
ATOM     21  H   UNL     1      -8.106  -5.137   6.678  1.00  0.00     0.293 HD
ENDBRANCH  17  20
ENDBRANCH   1  12
BRANCH   2  22
ATOM     22  O   UNL     1      -4.531  -9.903   7.473  1.00  0.00    -0.502 OA
ATOM     23  H   UNL     1      -5.250  -9.738   6.779  1.00  0.00     0.293 HD
ENDBRANCH   2  22
BRANCH   6  24
ATOM     24  O   UNL     1       0.681  -8.810   7.334  1.00  0.00    -0.507 OA
ATOM     25  H   UNL     1       0.301  -9.330   6.558  1.00  0.00     0.293 HD
ENDBRANCH   6  24
BRANCH   8  26
ATOM     26  O   UNL     1       0.795  -4.903  10.124  1.00  0.00    -0.508 OA
ATOM     27  H   UNL     1       0.620  -3.921   9.942  1.00  0.00     0.293 HD
ENDBRANCH   8  26
TORSDOF 6
ENDMDL
MODEL 3
REMARK VINA RESULT:    -4.344      4.903      7.489
REMARK INTER + INTRA:          -5.550
REMARK INTER:                  -5.266
REMARK INTRA:                  -0.284
REMARK UNBOUND:                -0.318
REMARK SMILES O=c1c(O)c(-c2ccc(O)c(O)c2)oc2cc(O)cc(O)c12
REMARK SMILES IDX 5 1 3 2 2 3 1 4 22 5 20 6 19 7 17 8 16 9 15 10 14 11 6 12
REMARK SMILES IDX 7 13 8 14 9 15 13 16 11 17 10 18 12 20 4 22 21 24 18 26
REMARK H PARENT 10 19 12 21 4 23 21 25 18 27
REMARK Flexibility Score: inf
ROOT
ATOM      1  C   UNL     1      -8.278  -4.903   7.957  1.00  0.00     0.180 A 
ATOM      2  C   UNL     1      -8.903  -4.743   6.709  1.00  0.00     0.208 A 
ATOM      3  C   UNL     1      -9.196  -3.446   6.256  1.00  0.00     0.238 A 
ATOM      4  O   UNL     1      -9.706  -3.306   5.114  1.00  0.00    -0.285 OA
ATOM      5  C   UNL     1      -8.876  -2.329   7.064  1.00  0.00     0.111 A 
ATOM      6  C   UNL     1      -9.164  -0.973   6.721  1.00  0.00     0.134 A 
ATOM      7  C   UNL     1      -8.685   0.062   7.535  1.00  0.00     0.093 A 
ATOM      8  C   UNL     1      -7.984  -0.215   8.713  1.00  0.00     0.123 A 
ATOM      9  C   UNL     1      -7.750  -1.535   9.085  1.00  0.00     0.094 A 
ATOM     10  C   UNL     1      -8.184  -2.588   8.275  1.00  0.00     0.146 A 
ATOM     11  O   UNL     1      -7.931  -3.832   8.662  1.00  0.00    -0.452 OA
ENDROOT
BRANCH   1  12
ATOM     12  C   UNL     1      -7.959  -6.238   8.514  1.00  0.00     0.025 A 
ATOM     13  C   UNL     1      -8.985  -7.018   9.069  1.00  0.00     0.016 A 
ATOM     14  C   UNL     1      -8.710  -8.289   9.581  1.00  0.00     0.051 A 
ATOM     15  C   UNL     1      -7.408  -8.805   9.530  1.00  0.00     0.157 A 
ATOM     16  C   UNL     1      -6.657  -6.768   8.445  1.00  0.00     0.062 A 
ATOM     17  C   UNL     1      -6.379  -8.042   8.954  1.00  0.00     0.158 A 
BRANCH  15  18
ATOM     18  O   UNL     1      -7.136 -10.073  10.043  1.00  0.00    -0.504 OA
ATOM     19  H   UNL     1      -7.855 -10.629  10.490  1.00  0.00     0.293 HD
ENDBRANCH  15  18
BRANCH  17  20
ATOM     20  O   UNL     1      -5.077  -8.532   8.876  1.00  0.00    -0.504 OA
ATOM     21  H   UNL     1      -4.302  -8.081   9.347  1.00  0.00     0.293 HD
ENDBRANCH  17  20
ENDBRANCH   1  12
BRANCH   2  22
ATOM     22  O   UNL     1      -9.191  -5.859   5.918  1.00  0.00    -0.502 OA
ATOM     23  H   UNL     1      -9.041  -6.806   6.241  1.00  0.00     0.293 HD
ENDBRANCH   2  22
BRANCH   6  24
ATOM     24  O   UNL     1      -9.934  -0.593   5.618  1.00  0.00    -0.507 OA
ATOM     25  H   UNL     1     -10.877  -0.904   5.441  1.00  0.00     0.293 HD
ENDBRANCH   6  24
BRANCH   8  26
ATOM     26  O   UNL     1      -7.525   0.820   9.525  1.00  0.00    -0.508 OA
ATOM     27  H   UNL     1      -6.544   0.912   9.762  1.00  0.00     0.293 HD
ENDBRANCH   8  26
TORSDOF 6
ENDMDL
MODEL 4
REMARK VINA RESULT:    -4.299      2.038      6.835
REMARK INTER + INTRA:          -5.496
REMARK INTER:                  -5.209
REMARK INTRA:                  -0.286
REMARK UNBOUND:                -0.318
REMARK SMILES O=c1c(O)c(-c2ccc(O)c(O)c2)oc2cc(O)cc(O)c12
REMARK SMILES IDX 5 1 3 2 2 3 1 4 22 5 20 6 19 7 17 8 16 9 15 10 14 11 6 12
REMARK SMILES IDX 7 13 8 14 9 15 13 16 11 17 10 18 12 20 4 22 21 24 18 26
REMARK H PARENT 10 19 12 21 4 23 21 25 18 27
REMARK Flexibility Score: inf
ROOT
ATOM      1  C   UNL     1      -4.141  -7.947   7.642  1.00  0.00     0.180 A 
ATOM      2  C   UNL     1      -5.210  -8.427   8.418  1.00  0.00     0.208 A 
ATOM      3  C   UNL     1      -6.304  -9.028   7.773  1.00  0.00     0.238 A 
ATOM      4  O   UNL     1      -7.232  -9.503   8.477  1.00  0.00    -0.285 OA
ATOM      5  C   UNL     1      -6.321  -9.127   6.362  1.00  0.00     0.111 A 
ATOM      6  C   UNL     1      -7.396  -9.681   5.602  1.00  0.00     0.134 A 
ATOM      7  C   UNL     1      -7.250  -9.847   4.219  1.00  0.00     0.093 A 
ATOM      8  C   UNL     1      -6.094  -9.420   3.560  1.00  0.00     0.123 A 
ATOM      9  C   UNL     1      -5.065  -8.825   4.285  1.00  0.00     0.094 A 
ATOM     10  C   UNL     1      -5.166  -8.677   5.671  1.00  0.00     0.146 A 
ATOM     11  O   UNL     1      -4.157  -8.114   6.324  1.00  0.00    -0.452 OA
ENDROOT
BRANCH   1  12
ATOM     12  C   UNL     1      -2.965  -7.280   8.246  1.00  0.00     0.025 A 
ATOM     13  C   UNL     1      -3.071  -5.949   8.677  1.00  0.00     0.016 A 
ATOM     14  C   UNL     1      -1.981  -5.307   9.269  1.00  0.00     0.051 A 
ATOM     15  C   UNL     1      -0.772  -5.992   9.452  1.00  0.00     0.157 A 
ATOM     16  C   UNL     1      -1.756  -7.971   8.451  1.00  0.00     0.062 A 
ATOM     17  C   UNL     1      -0.662  -7.332   9.046  1.00  0.00     0.158 A 
BRANCH  15  18
ATOM     18  O   UNL     1       0.316  -5.348  10.042  1.00  0.00    -0.504 OA
ATOM     19  H   UNL     1       1.246  -5.748  10.017  1.00  0.00     0.293 HD
ENDBRANCH  15  18
BRANCH  17  20
ATOM     20  O   UNL     1       0.522  -8.045   9.227  1.00  0.00    -0.504 OA
ATOM     21  H   UNL     1       0.867  -8.699   8.536  1.00  0.00     0.293 HD
ENDBRANCH  17  20
ENDBRANCH   1  12
BRANCH   2  22
ATOM     22  O   UNL     1      -5.162  -8.338   9.812  1.00  0.00    -0.502 OA
ATOM     23  H   UNL     1      -5.954  -8.036  10.365  1.00  0.00     0.293 HD
ENDBRANCH   2  22
BRANCH   6  24
ATOM     24  O   UNL     1      -8.628 -10.053   6.149  1.00  0.00    -0.507 OA
ATOM     25  H   UNL     1      -9.522  -9.895   5.710  1.00  0.00     0.293 HD
ENDBRANCH   6  24
BRANCH   8  26
ATOM     26  O   UNL     1      -5.964  -9.575   2.182  1.00  0.00    -0.508 OA
ATOM     27  H   UNL     1      -5.408 -10.323   1.783  1.00  0.00     0.293 HD
ENDBRANCH   8  26
TORSDOF 6
ENDMDL
MODEL 5
REMARK VINA RESULT:    -4.269      4.912      7.172
REMARK INTER + INTRA:          -5.460
REMARK INTER:                  -5.331
REMARK INTRA:                  -0.129
REMARK UNBOUND:                -0.318
REMARK SMILES O=c1c(O)c(-c2ccc(O)c(O)c2)oc2cc(O)cc(O)c12
REMARK SMILES IDX 5 1 3 2 2 3 1 4 22 5 20 6 19 7 17 8 16 9 15 10 14 11 6 12
REMARK SMILES IDX 7 13 8 14 9 15 13 16 11 17 10 18 12 20 4 22 21 24 18 26
REMARK H PARENT 10 19 12 21 4 23 21 25 18 27
REMARK Flexibility Score: inf
ROOT
ATOM      1  C   UNL     1      -8.769  -7.797   3.916  1.00  0.00     0.180 A 
ATOM      2  C   UNL     1      -9.118  -6.494   4.309  1.00  0.00     0.208 A 
ATOM      3  C   UNL     1      -9.063  -6.156   5.672  1.00  0.00     0.238 A 
ATOM      4  O   UNL     1      -9.323  -4.973   6.011  1.00  0.00    -0.285 OA
ATOM      5  C   UNL     1      -8.677  -7.130   6.623  1.00  0.00     0.111 A 
ATOM      6  C   UNL     1      -8.625  -6.908   8.033  1.00  0.00     0.134 A 
ATOM      7  C   UNL     1      -8.103  -7.903   8.870  1.00  0.00     0.093 A 
ATOM      8  C   UNL     1      -7.693  -9.136   8.354  1.00  0.00     0.123 A 
ATOM      9  C   UNL     1      -7.794  -9.381   6.988  1.00  0.00     0.094 A 
ATOM     10  C   UNL     1      -8.277  -8.396   6.123  1.00  0.00     0.146 A 
ATOM     11  O   UNL     1      -8.348  -8.669   4.826  1.00  0.00    -0.452 OA
ENDROOT
BRANCH   1  12
ATOM     12  C   UNL     1      -8.825  -8.236   2.503  1.00  0.00     0.025 A 
ATOM     13  C   UNL     1     -10.051  -8.214   1.821  1.00  0.00     0.016 A 
ATOM     14  C   UNL     1     -10.122  -8.604   0.481  1.00  0.00     0.051 A 
ATOM     15  C   UNL     1      -8.966  -9.007  -0.201  1.00  0.00     0.157 A 
ATOM     16  C   UNL     1      -7.663  -8.621   1.809  1.00  0.00     0.062 A 
ATOM     17  C   UNL     1      -7.730  -9.010   0.466  1.00  0.00     0.158 A 
BRANCH  15  18
ATOM     18  O   UNL     1      -9.041  -9.397  -1.538  1.00  0.00    -0.504 OA
ATOM     19  H   UNL     1      -9.326 -10.332  -1.803  1.00  0.00     0.293 HD
ENDBRANCH  15  18
BRANCH  17  20
ATOM     20  O   UNL     1      -6.560  -9.391  -0.188  1.00  0.00    -0.504 OA
ATOM     21  H   UNL     1      -6.573  -9.882  -1.073  1.00  0.00     0.293 HD
ENDBRANCH  17  20
ENDBRANCH   1  12
BRANCH   2  22
ATOM     22  O   UNL     1      -9.475  -5.542   3.350  1.00  0.00    -0.502 OA
ATOM     23  H   UNL     1     -10.232  -5.690   2.694  1.00  0.00     0.293 HD
ENDBRANCH   2  22
BRANCH   6  24
ATOM     24  O   UNL     1      -9.096  -5.750   8.659  1.00  0.00    -0.507 OA
ATOM     25  H   UNL     1      -8.590  -4.879   8.710  1.00  0.00     0.293 HD
ENDBRANCH   6  24
BRANCH   8  26
ATOM     26  O   UNL     1      -7.189 -10.125   9.195  1.00  0.00    -0.508 OA
ATOM     27  H   UNL     1      -7.803 -10.730   9.730  1.00  0.00     0.293 HD
ENDBRANCH   8  26
TORSDOF 6
ENDMDL
MODEL 6
REMARK VINA RESULT:    -4.222     15.308     17.457
REMARK INTER + INTRA:          -5.403
REMARK INTER:                  -5.074
REMARK INTRA:                  -0.329
REMARK UNBOUND:                -0.318
REMARK SMILES O=c1c(O)c(-c2ccc(O)c(O)c2)oc2cc(O)cc(O)c12
REMARK SMILES IDX 5 1 3 2 2 3 1 4 22 5 20 6 19 7 17 8 16 9 15 10 14 11 6 12
REMARK SMILES IDX 7 13 8 14 9 15 13 16 11 17 10 18 12 20 4 22 21 24 18 26
REMARK H PARENT 10 19 12 21 4 23 21 25 18 27
REMARK Flexibility Score: inf
ROOT
ATOM      1  C   UNL     1       6.792   4.279   9.142  1.00  0.00     0.180 A 
ATOM      2  C   UNL     1       7.403   5.545   9.118  1.00  0.00     0.208 A 
ATOM      3  C   UNL     1       6.601   6.690   9.254  1.00  0.00     0.238 A 
ATOM      4  O   UNL     1       7.160   7.817   9.286  1.00  0.00    -0.285 OA
ATOM      5  C   UNL     1       5.200   6.556   9.397  1.00  0.00     0.111 A 
ATOM      6  C   UNL     1       4.289   7.650   9.502  1.00  0.00     0.134 A 
ATOM      7  C   UNL     1       2.937   7.400   9.771  1.00  0.00     0.093 A 
ATOM      8  C   UNL     1       2.453   6.093   9.873  1.00  0.00     0.123 A 
ATOM      9  C   UNL     1       3.324   5.019   9.713  1.00  0.00     0.094 A 
ATOM     10  C   UNL     1       4.685   5.237   9.479  1.00  0.00     0.146 A 
ATOM     11  O   UNL     1       5.482   4.184   9.343  1.00  0.00    -0.452 OA
ENDROOT
BRANCH   1  12
ATOM     12  C   UNL     1       7.565   3.027   8.980  1.00  0.00     0.025 A 
ATOM     13  C   UNL     1       7.948   2.299  10.117  1.00  0.00     0.016 A 
ATOM     14  C   UNL     1       8.660   1.104   9.986  1.00  0.00     0.051 A 
ATOM     15  C   UNL     1       8.986   0.611   8.716  1.00  0.00     0.157 A 
ATOM     16  C   UNL     1       7.876   2.518   7.705  1.00  0.00     0.062 A 
ATOM     17  C   UNL     1       8.587   1.320   7.571  1.00  0.00     0.158 A 
BRANCH  15  18
ATOM     18  O   UNL     1       9.698  -0.581   8.588  1.00  0.00    -0.504 OA
ATOM     19  H   UNL     1       9.228  -1.470   8.470  1.00  0.00     0.293 HD
ENDBRANCH  15  18
BRANCH  17  20
ATOM     20  O   UNL     1       8.883   0.849   6.292  1.00  0.00    -0.504 OA
ATOM     21  H   UNL     1       8.814   1.439   5.472  1.00  0.00     0.293 HD
ENDBRANCH  17  20
ENDBRANCH   1  12
BRANCH   2  22
ATOM     22  O   UNL     1       8.791   5.652   8.998  1.00  0.00    -0.502 OA
ATOM     23  H   UNL     1       9.271   5.534   8.115  1.00  0.00     0.293 HD
ENDBRANCH   2  22
BRANCH   6  24
ATOM     24  O   UNL     1       4.652   8.989   9.325  1.00  0.00    -0.507 OA
ATOM     25  H   UNL     1       4.029   9.715   9.003  1.00  0.00     0.293 HD
ENDBRANCH   6  24
BRANCH   8  26
ATOM     26  O   UNL     1       1.105   5.853  10.125  1.00  0.00    -0.508 OA
ATOM     27  H   UNL     1       0.527   6.530  10.610  1.00  0.00     0.293 HD
ENDBRANCH   8  26
TORSDOF 6
ENDMDL
MODEL 7
REMARK VINA RESULT:    -4.204     18.890     20.904
REMARK INTER + INTRA:          -5.382
REMARK INTER:                  -5.300
REMARK INTRA:                  -0.082
REMARK UNBOUND:                -0.318
REMARK SMILES O=c1c(O)c(-c2ccc(O)c(O)c2)oc2cc(O)cc(O)c12
REMARK SMILES IDX 5 1 3 2 2 3 1 4 22 5 20 6 19 7 17 8 16 9 15 10 14 11 6 12
REMARK SMILES IDX 7 13 8 14 9 15 13 16 11 17 10 18 12 20 4 22 21 24 18 26
REMARK H PARENT 10 19 12 21 4 23 21 25 18 27
REMARK Flexibility Score: inf
ROOT
ATOM      1  C   UNL     1      -9.190   4.130  -7.294  1.00  0.00     0.180 A 
ATOM      2  C   UNL     1      -9.661   3.580  -6.089  1.00  0.00     0.208 A 
ATOM      3  C   UNL     1      -9.621   2.187  -5.916  1.00  0.00     0.238 A 
ATOM      4  O   UNL     1      -9.993   1.705  -4.815  1.00  0.00    -0.285 OA
ATOM      5  C   UNL     1      -9.127   1.362  -6.954  1.00  0.00     0.111 A 
ATOM      6  C   UNL     1      -9.078  -0.064  -6.901  1.00  0.00     0.134 A 
ATOM      7  C   UNL     1      -8.448  -0.772  -7.933  1.00  0.00     0.093 A 
ATOM      8  C   UNL     1      -7.924  -0.109  -9.046  1.00  0.00     0.123 A 
ATOM      9  C   UNL     1      -8.020   1.277  -9.133  1.00  0.00     0.094 A 
ATOM     10  C   UNL     1      -8.611   2.014  -8.104  1.00  0.00     0.146 A 
ATOM     11  O   UNL     1      -8.671   3.335  -8.223  1.00  0.00    -0.452 OA
ENDROOT
BRANCH   1  12
ATOM     12  C   UNL     1      -9.222   5.586  -7.561  1.00  0.00     0.025 A 
ATOM     13  C   UNL     1      -9.968   6.074  -8.644  1.00  0.00     0.016 A 
ATOM     14  C   UNL     1     -10.029   7.446  -8.902  1.00  0.00     0.051 A 
ATOM     15  C   UNL     1      -9.356   8.352  -8.071  1.00  0.00     0.157 A 
ATOM     16  C   UNL     1      -8.565   6.500  -6.716  1.00  0.00     0.062 A 
ATOM     17  C   UNL     1      -8.626   7.876  -6.970  1.00  0.00     0.158 A 
BRANCH  15  18
ATOM     18  O   UNL     1      -9.417   9.720  -8.331  1.00  0.00    -0.504 OA
ATOM     19  H   UNL     1      -8.761  10.171  -8.957  1.00  0.00     0.293 HD
ENDBRANCH  15  18
BRANCH  17  20
ATOM     20  O   UNL     1      -7.958   8.751  -6.115  1.00  0.00    -0.504 OA
ATOM     21  H   UNL     1      -7.603   8.457  -5.213  1.00  0.00     0.293 HD
ENDBRANCH  17  20
ENDBRANCH   1  12
BRANCH   2  22
ATOM     22  O   UNL     1     -10.124   4.415  -5.069  1.00  0.00    -0.502 OA
ATOM     23  H   UNL     1      -9.629   5.251  -4.784  1.00  0.00     0.293 HD
ENDBRANCH   2  22
BRANCH   6  24
ATOM     24  O   UNL     1      -9.653  -0.828  -5.881  1.00  0.00    -0.507 OA
ATOM     25  H   UNL     1      -9.833  -0.495  -4.946  1.00  0.00     0.293 HD
ENDBRANCH   6  24
BRANCH   8  26
ATOM     26  O   UNL     1      -7.314  -0.822 -10.075  1.00  0.00    -0.508 OA
ATOM     27  H   UNL     1      -7.555  -0.664 -11.047  1.00  0.00     0.293 HD
ENDBRANCH   8  26
TORSDOF 6
ENDMDL
MODEL 8
REMARK VINA RESULT:    -4.190      6.913      8.769
REMARK INTER + INTRA:          -5.365
REMARK INTER:                  -5.128
REMARK INTRA:                  -0.237
REMARK UNBOUND:                -0.318
REMARK SMILES O=c1c(O)c(-c2ccc(O)c(O)c2)oc2cc(O)cc(O)c12
REMARK SMILES IDX 5 1 3 2 2 3 1 4 22 5 20 6 19 7 17 8 16 9 15 10 14 11 6 12
REMARK SMILES IDX 7 13 8 14 9 15 13 16 11 17 10 18 12 20 4 22 21 24 18 26
REMARK H PARENT 10 19 12 21 4 23 21 25 18 27
REMARK Flexibility Score: inf
ROOT
ATOM      1  C   UNL     1      -9.285  -6.123   3.597  1.00  0.00     0.180 A 
ATOM      2  C   UNL     1      -9.379  -6.643   4.899  1.00  0.00     0.208 A 
ATOM      3  C   UNL     1      -9.562  -5.758   5.975  1.00  0.00     0.238 A 
ATOM      4  O   UNL     1      -9.699  -6.235   7.131  1.00  0.00    -0.285 OA
ATOM      5  C   UNL     1      -9.631  -4.365   5.736  1.00  0.00     0.111 A 
ATOM      6  C   UNL     1      -9.775  -3.376   6.755  1.00  0.00     0.134 A 
ATOM      7  C   UNL     1      -9.965  -2.035   6.394  1.00  0.00     0.093 A 
ATOM      8  C   UNL     1      -9.951  -1.642   5.053  1.00  0.00     0.123 A 
ATOM      9  C   UNL     1      -9.753  -2.592   4.056  1.00  0.00     0.094 A 
ATOM     10  C   UNL     1      -9.596  -3.942   4.382  1.00  0.00     0.146 A 
ATOM     11  O   UNL     1      -9.420  -4.816   3.399  1.00  0.00    -0.452 OA
ENDROOT
BRANCH   1  12
ATOM     12  C   UNL     1      -9.067  -6.988   2.416  1.00  0.00     0.025 A 
ATOM     13  C   UNL     1     -10.125  -7.772   1.929  1.00  0.00     0.016 A 
ATOM     14  C   UNL     1      -9.947  -8.580   0.803  1.00  0.00     0.051 A 
ATOM     15  C   UNL     1      -8.714  -8.605   0.138  1.00  0.00     0.157 A 
ATOM     16  C   UNL     1      -7.837  -6.999   1.732  1.00  0.00     0.062 A 
ATOM     17  C   UNL     1      -7.657  -7.806   0.602  1.00  0.00     0.158 A 
BRANCH  15  18
ATOM     18  O   UNL     1      -8.540  -9.413  -0.985  1.00  0.00    -0.504 OA
ATOM     19  H   UNL     1      -8.348  -9.019  -1.898  1.00  0.00     0.293 HD
ENDBRANCH  15  18
BRANCH  17  20
ATOM     20  O   UNL     1      -6.422  -7.797  -0.045  1.00  0.00    -0.504 OA
ATOM     21  H   UNL     1      -6.067  -6.973  -0.515  1.00  0.00     0.293 HD
ENDBRANCH  17  20
ENDBRANCH   1  12
BRANCH   2  22
ATOM     22  O   UNL     1      -9.329  -8.024   5.109  1.00  0.00    -0.502 OA
ATOM     23  H   UNL     1      -8.602  -8.608   4.714  1.00  0.00     0.293 HD
ENDBRANCH   2  22
BRANCH   6  24
ATOM     24  O   UNL     1      -9.711  -3.650   8.125  1.00  0.00    -0.507 OA
ATOM     25  H   UNL     1     -10.163  -4.430   8.576  1.00  0.00     0.293 HD
ENDBRANCH   6  24
BRANCH   8  26
ATOM     26  O   UNL     1     -10.125  -0.304   4.705  1.00  0.00    -0.508 OA
ATOM     27  H   UNL     1      -9.828   0.447   5.318  1.00  0.00     0.293 HD
ENDBRANCH   8  26
TORSDOF 6
ENDMDL
MODEL 9
REMARK VINA RESULT:    -4.021     19.869     21.490
REMARK INTER + INTRA:          -5.161
REMARK INTER:                  -5.075
REMARK INTRA:                  -0.086
REMARK UNBOUND:                -0.318
REMARK SMILES O=c1c(O)c(-c2ccc(O)c(O)c2)oc2cc(O)cc(O)c12
REMARK SMILES IDX 5 1 3 2 2 3 1 4 22 5 20 6 19 7 17 8 16 9 15 10 14 11 6 12
REMARK SMILES IDX 7 13 8 14 9 15 13 16 11 17 10 18 12 20 4 22 21 24 18 26
REMARK H PARENT 10 19 12 21 4 23 21 25 18 27
REMARK Flexibility Score: inf
ROOT
ATOM      1  C   UNL     1      -8.969   5.085  -7.253  1.00  0.00     0.180 A 
ATOM      2  C   UNL     1      -9.461   5.646  -8.444  1.00  0.00     0.208 A 
ATOM      3  C   UNL     1      -9.241   7.010  -8.696  1.00  0.00     0.238 A 
ATOM      4  O   UNL     1      -9.637   7.493  -9.789  1.00  0.00    -0.285 OA
ATOM      5  C   UNL     1      -8.547   7.798  -7.747  1.00  0.00     0.111 A 
ATOM      6  C   UNL     1      -8.303   9.198  -7.882  1.00  0.00     0.134 A 
ATOM      7  C   UNL     1      -7.492   9.851  -6.945  1.00  0.00     0.093 A 
ATOM      8  C   UNL     1      -6.971   9.167  -5.843  1.00  0.00     0.123 A 
ATOM      9  C   UNL     1      -7.253   7.814  -5.673  1.00  0.00     0.094 A 
ATOM     10  C   UNL     1      -8.029   7.127  -6.610  1.00  0.00     0.146 A 
ATOM     11  O   UNL     1      -8.264   5.836  -6.414  1.00  0.00    -0.452 OA
ENDROOT
BRANCH   1  12
ATOM     12  C   UNL     1      -9.182   3.661  -6.905  1.00  0.00     0.025 A 
ATOM     13  C   UNL     1      -9.895   3.333  -5.742  1.00  0.00     0.016 A 
ATOM     14  C   UNL     1     -10.125   1.997  -5.406  1.00  0.00     0.051 A 
ATOM     15  C   UNL     1      -9.659   0.969  -6.236  1.00  0.00     0.157 A 
ATOM     16  C   UNL     1      -8.733   2.627  -7.747  1.00  0.00     0.062 A 
ATOM     17  C   UNL     1      -8.965   1.287  -7.415  1.00  0.00     0.158 A 
BRANCH  15  18
ATOM     18  O   UNL     1      -9.888  -0.364  -5.897  1.00  0.00    -0.504 OA
ATOM     19  H   UNL     1      -9.125  -1.014  -5.751  1.00  0.00     0.293 HD
ENDBRANCH  15  18
BRANCH  17  20
ATOM     20  O   UNL     1      -8.500   0.288  -8.269  1.00  0.00    -0.504 OA
ATOM     21  H   UNL     1      -7.610   0.359  -8.747  1.00  0.00     0.293 HD
ENDBRANCH  17  20
ENDBRANCH   1  12
BRANCH   2  22
ATOM     22  O   UNL     1     -10.125   4.844  -9.377  1.00  0.00    -0.502 OA
ATOM     23  H   UNL     1      -9.776   4.702 -10.317  1.00  0.00     0.293 HD
ENDBRANCH   2  22
BRANCH   6  24
ATOM     24  O   UNL     1      -8.851   9.993  -8.893  1.00  0.00    -0.507 OA
ATOM     25  H   UNL     1      -9.802  10.331  -8.906  1.00  0.00     0.293 HD
ENDBRANCH   6  24
BRANCH   8  26
ATOM     26  O   UNL     1      -6.179   9.828  -4.907  1.00  0.00    -0.508 OA
ATOM     27  H   UNL     1      -5.667   9.321  -4.193  1.00  0.00     0.293 HD
ENDBRANCH   8  26
TORSDOF 6
ENDMDL
