MODEL 1
REMARK VINA RESULT:    -3.804      0.000      0.000
REMARK INTER + INTRA:          -9.277
REMARK INTER:                  -6.918
REMARK INTRA:                  -2.359
REMARK UNBOUND:                -2.359
REMARK SMILES CCCCCCCCCCCCCCCC(=O)[O-]
REMARK SMILES IDX 9 1 10 2 11 3 12 4 13 5 14 6 15 7 16 8 17 9 18 10 8 11 7 12
REMARK SMILES IDX 6 13 5 14 4 15 3 16 2 17 1 18
REMARK H PARENT
REMARK Flexibility Score: inf
ROOT
ATOM      1  C   UNL     1       8.296 -16.423  32.442  1.00  0.00     0.000 C 
ENDROOT
BRANCH   1   2
ATOM      2  C   UNL     1       8.536 -17.542  33.467  1.00  0.00     0.000 C 
BRANCH   2   3
ATOM      3  C   UNL     1       8.507 -17.036  34.918  1.00  0.00     0.000 C 
BRANCH   3   4
ATOM      4  C   UNL     1       9.885 -16.553  35.403  1.00  0.00     0.000 C 
BRANCH   4   5
ATOM      5  C   UNL     1       9.807 -15.222  36.169  1.00  0.00     0.000 C 
BRANCH   5   6
ATOM      6  C   UNL     1      10.736 -14.144  35.582  1.00  0.00     0.006 C 
BRANCH   6   7
ATOM      7  C   UNL     1      11.327 -14.563  34.229  1.00  0.00     0.053 C 
BRANCH   7   8
ATOM      8  C   UNL     1      10.854 -13.676  33.120  1.00  0.00     0.041 C 
ATOM      9  O   UNL     1      11.512 -13.592  32.049  1.00  0.00    -0.550 OA
ATOM     10  O   UNL     1       9.703 -12.914  33.282  1.00  0.00    -0.550 OA
ENDBRANCH   7   8
ENDBRANCH   6   7
ENDBRANCH   5   6
ENDBRANCH   4   5
ENDBRANCH   3   4
ENDBRANCH   2   3
ENDBRANCH   1   2
BRANCH   1  11
ATOM     11  C   UNL     1       9.323 -16.488  31.306  1.00  0.00     0.000 C 
BRANCH  11  12
ATOM     12  C   UNL     1      10.609 -17.193  31.768  1.00  0.00    -0.000 C 
BRANCH  12  13
ATOM     13  C   UNL     1      11.075 -18.278  30.783  1.00  0.00    -0.000 C 
BRANCH  13  14
ATOM     14  C   UNL     1      10.780 -19.700  31.285  1.00  0.00    -0.000 C 
BRANCH  14  15
ATOM     15  C   UNL     1      10.055 -20.521  30.212  1.00  0.00    -0.000 C 
BRANCH  15  16
ATOM     16  C   UNL     1       8.745 -19.841  29.789  1.00  0.00    -0.000 C 
BRANCH  16  17
ATOM     17  C   UNL     1       7.631 -20.004  30.835  1.00  0.00    -0.003 C 
ATOM     18  C   UNL     1       6.453 -19.060  30.596  1.00  0.00     0.004 C 
ENDBRANCH  16  17
ENDBRANCH  15  16
ENDBRANCH  14  15
ENDBRANCH  13  14
ENDBRANCH  12  13
ENDBRANCH  11  12
ENDBRANCH   1  11
TORSDOF 14
ENDMDL
MODEL 2
REMARK VINA RESULT:    -3.761      3.661      6.587
REMARK INTER + INTRA:          -9.198
REMARK INTER:                  -7.590
REMARK INTRA:                  -1.608
REMARK UNBOUND:                -2.359
REMARK SMILES CCCCCCCCCCCCCCCC(=O)[O-]
REMARK SMILES IDX 9 1 10 2 11 3 12 4 13 5 14 6 15 7 16 8 17 9 18 10 8 11 7 12
REMARK SMILES IDX 6 13 5 14 4 15 3 16 2 17 1 18
REMARK H PARENT
REMARK Flexibility Score: inf
ROOT
ATOM      1  C   UNL     1       9.981 -16.476  31.680  1.00  0.00     0.000 C 
ENDROOT
BRANCH   1   2
ATOM      2  C   UNL     1      10.984 -17.606  31.402  1.00  0.00     0.000 C 
BRANCH   2   3
ATOM      3  C   UNL     1      10.407 -19.000  31.696  1.00  0.00     0.000 C 
BRANCH   3   4
ATOM      4  C   UNL     1       8.869 -19.013  31.704  1.00  0.00     0.000 C 
BRANCH   4   5
ATOM      5  C   UNL     1       8.281 -20.004  30.687  1.00  0.00     0.000 C 
BRANCH   5   6
ATOM      6  C   UNL     1       9.364 -20.823  29.962  1.00  0.00     0.006 C 
BRANCH   6   7
ATOM      7  C   UNL     1       9.398 -20.532  28.455  1.00  0.00     0.053 C 
BRANCH   7   8
ATOM      8  C   UNL     1       8.444 -21.405  27.700  1.00  0.00     0.041 C 
ATOM      9  O   UNL     1       8.188 -21.168  26.490  1.00  0.00    -0.550 OA
ATOM     10  O   UNL     1       7.811 -22.461  28.344  1.00  0.00    -0.550 OA
ENDBRANCH   7   8
ENDBRANCH   6   7
ENDBRANCH   5   6
ENDBRANCH   4   5
ENDBRANCH   3   4
ENDBRANCH   2   3
ENDBRANCH   1   2
BRANCH   1  11
ATOM     11  C   UNL     1      10.706 -15.185  32.078  1.00  0.00     0.000 C 
BRANCH  11  12
ATOM     12  C   UNL     1      11.088 -15.206  33.566  1.00  0.00    -0.000 C 
BRANCH  12  13
ATOM     13  C   UNL     1       9.865 -15.115  34.494  1.00  0.00    -0.000 C 
BRANCH  13  14
ATOM     14  C   UNL     1       9.915 -16.135  35.641  1.00  0.00    -0.000 C 
BRANCH  14  15
ATOM     15  C   UNL     1       9.096 -17.386  35.300  1.00  0.00    -0.000 C 
BRANCH  15  16
ATOM     16  C   UNL     1       7.780 -17.009  34.605  1.00  0.00    -0.000 C 
BRANCH  16  17
ATOM     17  C   UNL     1       6.623 -16.815  35.598  1.00  0.00    -0.003 C 
ATOM     18  C   UNL     1       6.510 -17.958  36.606  1.00  0.00     0.004 C 
ENDBRANCH  16  17
ENDBRANCH  15  16
ENDBRANCH  14  15
ENDBRANCH  13  14
ENDBRANCH  12  13
ENDBRANCH  11  12
ENDBRANCH   1  11
TORSDOF 14
ENDMDL
MODEL 3
REMARK VINA RESULT:    -3.738      1.460      1.928
REMARK INTER + INTRA:          -9.157
REMARK INTER:                  -7.176
REMARK INTRA:                  -1.982
REMARK UNBOUND:                -2.359
REMARK SMILES CCCCCCCCCCCCCCCC(=O)[O-]
REMARK SMILES IDX 9 1 10 2 11 3 12 4 13 5 14 6 15 7 16 8 17 9 18 10 8 11 7 12
REMARK SMILES IDX 6 13 5 14 4 15 3 16 2 17 1 18
REMARK H PARENT
REMARK Flexibility Score: inf
ROOT
ATOM      1  C   UNL     1       9.593 -17.929  32.868  1.00  0.00     0.000 C 
ENDROOT
BRANCH   1   2
ATOM      2  C   UNL     1       8.080 -17.694  32.741  1.00  0.00     0.000 C 
BRANCH   2   3
ATOM      3  C   UNL     1       7.453 -17.143  34.031  1.00  0.00     0.000 C 
BRANCH   3   4
ATOM      4  C   UNL     1       8.428 -17.169  35.221  1.00  0.00     0.000 C 
BRANCH   4   5
ATOM      5  C   UNL     1       8.764 -15.761  35.739  1.00  0.00     0.000 C 
BRANCH   5   6
ATOM      6  C   UNL     1      10.279 -15.517  35.856  1.00  0.00     0.006 C 
BRANCH   6   7
ATOM      7  C   UNL     1      10.857 -14.860  34.595  1.00  0.00     0.053 C 
BRANCH   7   8
ATOM      8  C   UNL     1      11.513 -13.550  34.904  1.00  0.00     0.041 C 
ATOM      9  O   UNL     1      12.314 -13.454  35.871  1.00  0.00    -0.550 OA
ATOM     10  O   UNL     1      11.213 -12.426  34.145  1.00  0.00    -0.550 OA
ENDBRANCH   7   8
ENDBRANCH   6   7
ENDBRANCH   5   6
ENDBRANCH   4   5
ENDBRANCH   3   4
ENDBRANCH   2   3
ENDBRANCH   1   2
BRANCH   1  11
ATOM     11  C   UNL     1      10.352 -17.256  31.719  1.00  0.00     0.000 C 
BRANCH  11  12
ATOM     12  C   UNL     1      11.130 -18.293  30.893  1.00  0.00    -0.000 C 
BRANCH  12  13
ATOM     13  C   UNL     1      10.805 -19.739  31.299  1.00  0.00    -0.000 C 
BRANCH  13  14
ATOM     14  C   UNL     1      10.104 -20.525  30.181  1.00  0.00    -0.000 C 
BRANCH  14  15
ATOM     15  C   UNL     1       8.579 -20.414  30.304  1.00  0.00    -0.000 C 
BRANCH  15  16
ATOM     16  C   UNL     1       7.959 -19.887  29.002  1.00  0.00    -0.000 C 
BRANCH  16  17
ATOM     17  C   UNL     1       7.705 -18.371  29.039  1.00  0.00    -0.003 C 
ATOM     18  C   UNL     1       8.732 -17.580  28.232  1.00  0.00     0.004 C 
ENDBRANCH  16  17
ENDBRANCH  15  16
ENDBRANCH  14  15
ENDBRANCH  13  14
ENDBRANCH  12  13
ENDBRANCH  11  12
ENDBRANCH   1  11
TORSDOF 14
ENDMDL
MODEL 4
REMARK VINA RESULT:    -3.729      2.393      3.732
REMARK INTER + INTRA:          -9.140
REMARK INTER:                  -7.251
REMARK INTRA:                  -1.890
REMARK UNBOUND:                -2.359
REMARK SMILES CCCCCCCCCCCCCCCC(=O)[O-]
REMARK SMILES IDX 9 1 10 2 11 3 12 4 13 5 14 6 15 7 16 8 17 9 18 10 8 11 7 12
REMARK SMILES IDX 6 13 5 14 4 15 3 16 2 17 1 18
REMARK H PARENT
REMARK Flexibility Score: inf
ROOT
ATOM      1  C   UNL     1       9.494 -14.857  31.857  1.00  0.00     0.000 C 
ENDROOT
BRANCH   1   2
ATOM      2  C   UNL     1      10.211 -14.239  33.068  1.00  0.00     0.000 C 
BRANCH   2   3
ATOM      3  C   UNL     1      10.876 -15.292  33.967  1.00  0.00     0.000 C 
BRANCH   3   4
ATOM      4  C   UNL     1      10.020 -15.645  35.196  1.00  0.00     0.000 C 
BRANCH   4   5
ATOM      5  C   UNL     1       9.430 -17.062  35.117  1.00  0.00     0.000 C 
BRANCH   5   6
ATOM      6  C   UNL     1       7.926 -17.063  34.789  1.00  0.00     0.006 C 
BRANCH   6   7
ATOM      7  C   UNL     1       7.075 -17.530  35.978  1.00  0.00     0.053 C 
BRANCH   7   8
ATOM      8  C   UNL     1       6.325 -16.394  36.602  1.00  0.00     0.041 C 
ATOM      9  O   UNL     1       5.069 -16.435  36.690  1.00  0.00    -0.550 OA
ATOM     10  O   UNL     1       7.011 -15.273  37.054  1.00  0.00    -0.550 OA
ENDBRANCH   7   8
ENDBRANCH   6   7
ENDBRANCH   5   6
ENDBRANCH   4   5
ENDBRANCH   3   4
ENDBRANCH   2   3
ENDBRANCH   1   2
BRANCH   1  11
ATOM     11  C   UNL     1      10.504 -15.361  30.820  1.00  0.00     0.000 C 
BRANCH  11  12
ATOM     12  C   UNL     1      10.243 -16.834  30.469  1.00  0.00    -0.000 C 
BRANCH  12  13
ATOM     13  C   UNL     1      11.144 -17.799  31.257  1.00  0.00    -0.000 C 
BRANCH  13  14
ATOM     14  C   UNL     1      10.399 -19.060  31.721  1.00  0.00    -0.000 C 
BRANCH  14  15
ATOM     15  C   UNL     1       8.883 -18.889  31.570  1.00  0.00    -0.000 C 
BRANCH  15  16
ATOM     16  C   UNL     1       8.285 -20.013  30.712  1.00  0.00    -0.000 C 
BRANCH  16  17
ATOM     17  C   UNL     1       9.353 -20.779  29.914  1.00  0.00    -0.003 C 
ATOM     18  C   UNL     1       9.313 -20.464  28.420  1.00  0.00     0.004 C 
ENDBRANCH  16  17
ENDBRANCH  15  16
ENDBRANCH  14  15
ENDBRANCH  13  14
ENDBRANCH  12  13
ENDBRANCH  11  12
ENDBRANCH   1  11
TORSDOF 14
ENDMDL
MODEL 5
REMARK VINA RESULT:    -3.724      1.597      2.857
REMARK INTER + INTRA:          -9.131
REMARK INTER:                  -6.620
REMARK INTRA:                  -2.511
REMARK UNBOUND:                -2.359
REMARK SMILES CCCCCCCCCCCCCCCC(=O)[O-]
REMARK SMILES IDX 9 1 10 2 11 3 12 4 13 5 14 6 15 7 16 8 17 9 18 10 8 11 7 12
REMARK SMILES IDX 6 13 5 14 4 15 3 16 2 17 1 18
REMARK H PARENT
REMARK Flexibility Score: inf
ROOT
ATOM      1  C   UNL     1      10.215 -16.145  30.466  1.00  0.00     0.000 C 
ENDROOT
BRANCH   1   2
ATOM      2  C   UNL     1       8.702 -15.935  30.633  1.00  0.00     0.000 C 
BRANCH   2   3
ATOM      3  C   UNL     1       8.314 -15.511  32.059  1.00  0.00     0.000 C 
BRANCH   3   4
ATOM      4  C   UNL     1       7.236 -16.421  32.673  1.00  0.00     0.000 C 
BRANCH   4   5
ATOM      5  C   UNL     1       7.830 -17.665  33.352  1.00  0.00     0.000 C 
BRANCH   5   6
ATOM      6  C   UNL     1       9.240 -17.418  33.916  1.00  0.00     0.006 C 
BRANCH   6   7
ATOM      7  C   UNL     1       9.204 -16.934  35.372  1.00  0.00     0.053 C 
BRANCH   7   8
ATOM      8  C   UNL     1       9.835 -15.584  35.522  1.00  0.00     0.041 C 
ATOM      9  O   UNL     1      10.734 -15.211  34.722  1.00  0.00    -0.550 OA
ATOM     10  O   UNL     1       9.456 -14.752  36.568  1.00  0.00    -0.550 OA
ENDBRANCH   7   8
ENDBRANCH   6   7
ENDBRANCH   5   6
ENDBRANCH   4   5
ENDBRANCH   3   4
ENDBRANCH   2   3
ENDBRANCH   1   2
BRANCH   1  11
ATOM     11  C   UNL     1      10.518 -17.548  29.929  1.00  0.00     0.000 C 
BRANCH  11  12
ATOM     12  C   UNL     1      11.158 -18.427  31.015  1.00  0.00    -0.000 C 
BRANCH  12  13
ATOM     13  C   UNL     1      10.379 -19.730  31.258  1.00  0.00    -0.000 C 
BRANCH  13  14
ATOM     14  C   UNL     1      10.174 -20.546  29.972  1.00  0.00    -0.000 C 
BRANCH  14  15
ATOM     15  C   UNL     1       8.688 -20.855  29.749  1.00  0.00    -0.000 C 
BRANCH  15  16
ATOM     16  C   UNL     1       7.808 -20.054  30.718  1.00  0.00    -0.000 C 
BRANCH  16  17
ATOM     17  C   UNL     1       6.859 -19.086  29.992  1.00  0.00    -0.003 C 
ATOM     18  C   UNL     1       7.298 -18.794  28.558  1.00  0.00     0.004 C 
ENDBRANCH  16  17
ENDBRANCH  15  16
ENDBRANCH  14  15
ENDBRANCH  13  14
ENDBRANCH  12  13
ENDBRANCH  11  12
ENDBRANCH   1  11
TORSDOF 14
ENDMDL
MODEL 6
REMARK VINA RESULT:    -3.718      1.731      3.274
REMARK INTER + INTRA:          -9.120
REMARK INTER:                  -6.845
REMARK INTRA:                  -2.274
REMARK UNBOUND:                -2.359
REMARK SMILES CCCCCCCCCCCCCCCC(=O)[O-]
REMARK SMILES IDX 9 1 10 2 11 3 12 4 13 5 14 6 15 7 16 8 17 9 18 10 8 11 7 12
REMARK SMILES IDX 6 13 5 14 4 15 3 16 2 17 1 18
REMARK H PARENT
REMARK Flexibility Score: inf
ROOT
ATOM      1  C   UNL     1       6.745 -17.896  30.903  1.00  0.00     0.000 C 
ENDROOT
BRANCH   1   2
ATOM      2  C   UNL     1       7.259 -18.076  32.340  1.00  0.00     0.000 C 
BRANCH   2   3
ATOM      3  C   UNL     1       7.814 -16.775  32.942  1.00  0.00     0.000 C 
BRANCH   3   4
ATOM      4  C   UNL     1       9.141 -16.988  33.690  1.00  0.00     0.000 C 
BRANCH   4   5
ATOM      5  C   UNL     1      10.126 -15.826  33.486  1.00  0.00     0.000 C 
BRANCH   5   6
ATOM      6  C   UNL     1      10.592 -15.203  34.814  1.00  0.00     0.006 C 
BRANCH   6   7
ATOM      7  C   UNL     1       9.718 -15.642  35.997  1.00  0.00     0.053 C 
BRANCH   7   8
ATOM      8  C   UNL     1       8.724 -14.587  36.373  1.00  0.00     0.041 C 
ATOM      9  O   UNL     1       7.554 -14.908  36.709  1.00  0.00    -0.550 OA
ATOM     10  O   UNL     1       9.081 -13.245  36.317  1.00  0.00    -0.550 OA
ENDBRANCH   7   8
ENDBRANCH   6   7
ENDBRANCH   5   6
ENDBRANCH   4   5
ENDBRANCH   3   4
ENDBRANCH   2   3
ENDBRANCH   1   2
BRANCH   1  11
ATOM     11  C   UNL     1       7.024 -19.145  30.059  1.00  0.00     0.000 C 
BRANCH  11  12
ATOM     12  C   UNL     1       7.931 -20.128  30.815  1.00  0.00    -0.000 C 
BRANCH  12  13
ATOM     13  C   UNL     1       8.944 -20.827  29.893  1.00  0.00    -0.000 C 
BRANCH  13  14
ATOM     14  C   UNL     1      10.401 -20.543  30.292  1.00  0.00    -0.000 C 
BRANCH  14  15
ATOM     15  C   UNL     1      10.472 -19.468  31.384  1.00  0.00    -0.000 C 
BRANCH  15  16
ATOM     16  C   UNL     1      11.159 -18.198  30.861  1.00  0.00    -0.000 C 
BRANCH  16  17
ATOM     17  C   UNL     1      10.456 -17.611  29.627  1.00  0.00    -0.003 C 
ATOM     18  C   UNL     1      10.037 -16.155  29.823  1.00  0.00     0.004 C 
ENDBRANCH  16  17
ENDBRANCH  15  16
ENDBRANCH  14  15
ENDBRANCH  13  14
ENDBRANCH  12  13
ENDBRANCH  11  12
ENDBRANCH   1  11
TORSDOF 14
ENDMDL
MODEL 7
REMARK VINA RESULT:    -3.712      3.204      6.771
REMARK INTER + INTRA:          -9.109
REMARK INTER:                  -7.041
REMARK INTRA:                  -2.068
REMARK UNBOUND:                -2.359
REMARK SMILES CCCCCCCCCCCCCCCC(=O)[O-]
REMARK SMILES IDX 9 1 10 2 11 3 12 4 13 5 14 6 15 7 16 8 17 9 18 10 8 11 7 12
REMARK SMILES IDX 6 13 5 14 4 15 3 16 2 17 1 18
REMARK H PARENT
REMARK Flexibility Score: inf
ROOT
ATOM      1  C   UNL     1       9.386 -16.487  31.416  1.00  0.00     0.000 C 
ENDROOT
BRANCH   1   2
ATOM      2  C   UNL     1      10.688 -17.178  31.848  1.00  0.00     0.000 C 
BRANCH   2   3
ATOM      3  C   UNL     1      11.148 -18.257  30.855  1.00  0.00     0.000 C 
BRANCH   3   4
ATOM      4  C   UNL     1      10.836 -19.682  31.345  1.00  0.00     0.000 C 
BRANCH   4   5
ATOM      5  C   UNL     1      10.093 -20.519  30.291  1.00  0.00     0.000 C 
BRANCH   5   6
ATOM      6  C   UNL     1       8.839 -19.812  29.747  1.00  0.00     0.006 C 
BRANCH   6   7
ATOM      7  C   UNL     1       7.659 -19.895  30.725  1.00  0.00     0.053 C 
BRANCH   7   8
ATOM      8  C   UNL     1       6.599 -20.831  30.235  1.00  0.00     0.041 C 
ATOM      9  O   UNL     1       6.917 -21.913  29.674  1.00  0.00    -0.550 OA
ATOM     10  O   UNL     1       5.258 -20.493  30.366  1.00  0.00    -0.550 OA
ENDBRANCH   7   8
ENDBRANCH   6   7
ENDBRANCH   5   6
ENDBRANCH   4   5
ENDBRANCH   3   4
ENDBRANCH   2   3
ENDBRANCH   1   2
BRANCH   1  11
ATOM     11  C   UNL     1       8.292 -16.665  32.475  1.00  0.00     0.000 C 
BRANCH  11  12
ATOM     12  C   UNL     1       8.752 -17.622  33.586  1.00  0.00    -0.000 C 
BRANCH  12  13
ATOM     13  C   UNL     1       8.626 -17.005  34.988  1.00  0.00    -0.000 C 
BRANCH  13  14
ATOM     14  C   UNL     1       9.939 -16.375  35.479  1.00  0.00    -0.000 C 
BRANCH  14  15
ATOM     15  C   UNL     1       9.674 -15.051  36.207  1.00  0.00    -0.000 C 
BRANCH  15  16
ATOM     16  C   UNL     1      10.261 -13.867  35.425  1.00  0.00    -0.000 C 
BRANCH  16  17
ATOM     17  C   UNL     1      11.414 -14.284  34.498  1.00  0.00    -0.003 C 
ATOM     18  C   UNL     1      11.253 -13.748  33.077  1.00  0.00     0.004 C 
ENDBRANCH  16  17
ENDBRANCH  15  16
ENDBRANCH  14  15
ENDBRANCH  13  14
ENDBRANCH  12  13
ENDBRANCH  11  12
ENDBRANCH   1  11
TORSDOF 14
ENDMDL
MODEL 8
REMARK VINA RESULT:    -3.708      2.123      2.710
REMARK INTER + INTRA:          -9.103
REMARK INTER:                  -6.938
REMARK INTRA:                  -2.165
REMARK UNBOUND:                -2.359
REMARK SMILES CCCCCCCCCCCCCCCC(=O)[O-]
REMARK SMILES IDX 9 1 10 2 11 3 12 4 13 5 14 6 15 7 16 8 17 9 18 10 8 11 7 12
REMARK SMILES IDX 6 13 5 14 4 15 3 16 2 17 1 18
REMARK H PARENT
REMARK Flexibility Score: inf
ROOT
ATOM      1  C   UNL     1       8.038 -17.706  32.997  1.00  0.00     0.000 C 
ENDROOT
BRANCH   1   2
ATOM      2  C   UNL     1       7.055 -17.460  34.152  1.00  0.00     0.000 C 
BRANCH   2   3
ATOM      3  C   UNL     1       7.755 -17.005  35.443  1.00  0.00     0.000 C 
BRANCH   3   4
ATOM      4  C   UNL     1       9.281 -17.193  35.386  1.00  0.00     0.000 C 
BRANCH   4   5
ATOM      5  C   UNL     1      10.044 -15.865  35.513  1.00  0.00     0.000 C 
BRANCH   5   6
ATOM      6  C   UNL     1       9.185 -14.647  35.134  1.00  0.00     0.006 C 
BRANCH   6   7
ATOM      7  C   UNL     1       9.109 -13.616  36.269  1.00  0.00     0.053 C 
BRANCH   7   8
ATOM      8  C   UNL     1       7.735 -13.545  36.861  1.00  0.00     0.041 C 
ATOM      9  O   UNL     1       6.814 -12.935  36.256  1.00  0.00    -0.550 OA
ATOM     10  O   UNL     1       7.481 -14.123  38.098  1.00  0.00    -0.550 OA
ENDBRANCH   7   8
ENDBRANCH   6   7
ENDBRANCH   5   6
ENDBRANCH   4   5
ENDBRANCH   3   4
ENDBRANCH   2   3
ENDBRANCH   1   2
BRANCH   1  11
ATOM     11  C   UNL     1       7.988 -16.561  31.979  1.00  0.00     0.000 C 
BRANCH  11  12
ATOM     12  C   UNL     1       9.353 -16.370  31.299  1.00  0.00    -0.000 C 
BRANCH  12  13
ATOM     13  C   UNL     1      10.454 -17.240  31.926  1.00  0.00    -0.000 C 
BRANCH  13  14
ATOM     14  C   UNL     1      11.070 -18.228  30.923  1.00  0.00    -0.000 C 
BRANCH  14  15
ATOM     15  C   UNL     1      10.777 -19.678  31.329  1.00  0.00    -0.000 C 
BRANCH  15  16
ATOM     16  C   UNL     1       9.983 -20.405  30.234  1.00  0.00    -0.000 C 
BRANCH  16  17
ATOM     17  C   UNL     1       8.463 -20.295  30.435  1.00  0.00    -0.003 C 
ATOM     18  C   UNL     1       7.798 -19.369  29.418  1.00  0.00     0.004 C 
ENDBRANCH  16  17
ENDBRANCH  15  16
ENDBRANCH  14  15
ENDBRANCH  13  14
ENDBRANCH  12  13
ENDBRANCH  11  12
ENDBRANCH   1  11
TORSDOF 14
ENDMDL
MODEL 9
REMARK VINA RESULT:    -3.697      1.994      6.065
REMARK INTER + INTRA:          -9.082
REMARK INTER:                  -6.917
REMARK INTRA:                  -2.165
REMARK UNBOUND:                -2.359
REMARK SMILES CCCCCCCCCCCCCCCC(=O)[O-]
REMARK SMILES IDX 9 1 10 2 11 3 12 4 13 5 14 6 15 7 16 8 17 9 18 10 8 11 7 12
REMARK SMILES IDX 6 13 5 14 4 15 3 16 2 17 1 18
REMARK H PARENT
REMARK Flexibility Score: inf
ROOT
ATOM      1  C   UNL     1      10.868 -18.151  30.767  1.00  0.00     0.000 C 
ENDROOT
BRANCH   1   2
ATOM      2  C   UNL     1      10.812 -19.588  31.307  1.00  0.00     0.000 C 
BRANCH   2   3
ATOM      3  C   UNL     1      10.233 -20.585  30.291  1.00  0.00     0.000 C 
BRANCH   3   4
ATOM      4  C   UNL     1       8.939 -20.074  29.633  1.00  0.00     0.000 C 
BRANCH   4   5
ATOM      5  C   UNL     1       7.691 -20.368  30.480  1.00  0.00     0.000 C 
BRANCH   5   6
ATOM      6  C   UNL     1       6.919 -19.093  30.865  1.00  0.00     0.006 C 
BRANCH   6   7
ATOM      7  C   UNL     1       7.193 -17.937  29.893  1.00  0.00     0.053 C 
BRANCH   7   8
ATOM      8  C   UNL     1       6.616 -16.648  30.391  1.00  0.00     0.041 C 
ATOM      9  O   UNL     1       7.360 -15.648  30.574  1.00  0.00    -0.550 OA
ATOM     10  O   UNL     1       5.261 -16.561  30.686  1.00  0.00    -0.550 OA
ENDBRANCH   7   8
ENDBRANCH   6   7
ENDBRANCH   5   6
ENDBRANCH   4   5
ENDBRANCH   3   4
ENDBRANCH   2   3
ENDBRANCH   1   2
BRANCH   1  11
ATOM     11  C   UNL     1      10.301 -17.158  31.788  1.00  0.00     0.000 C 
BRANCH  11  12
ATOM     12  C   UNL     1       9.598 -17.894  32.939  1.00  0.00    -0.000 C 
BRANCH  12  13
ATOM     13  C   UNL     1       8.590 -17.003  33.684  1.00  0.00    -0.000 C 
BRANCH  13  14
ATOM     14  C   UNL     1       8.736 -17.093  35.211  1.00  0.00    -0.000 C 
BRANCH  14  15
ATOM     15  C   UNL     1       9.998 -16.363  35.686  1.00  0.00    -0.000 C 
BRANCH  15  16
ATOM     16  C   UNL     1       9.685 -14.904  36.050  1.00  0.00    -0.000 C 
BRANCH  16  17
ATOM     17  C   UNL     1      10.563 -13.902  35.284  1.00  0.00    -0.003 C 
ATOM     18  C   UNL     1      11.433 -14.571  34.222  1.00  0.00     0.004 C 
ENDBRANCH  16  17
ENDBRANCH  15  16
ENDBRANCH  14  15
ENDBRANCH  13  14
ENDBRANCH  12  13
ENDBRANCH  11  12
ENDBRANCH   1  11
TORSDOF 14
ENDMDL
