MODEL 1
REMARK VINA RESULT:    -6.501      0.000      0.000
REMARK INTER + INTRA:         -21.820
REMARK INTER:                 -17.143
REMARK INTRA:                  -4.677
REMARK UNBOUND:                -4.677
REMARK SMILES CCCCCCCCCCCCCCCCCCCCCCCCCCCCCC(=O)[O-]
REMARK SMILES IDX 16 1 17 2 18 3 19 4 20 5 21 6 22 7 23 8 24 9 25 10 26 11
REMARK SMILES IDX 27 12 28 13 29 14 30 15 31 16 32 17 15 18 14 19 13 20 12 21
REMARK SMILES IDX 11 22 10 23 9 24 8 25 7 26 6 27 5 28 4 29 3 30 2 31 1 32
REMARK H PARENT
REMARK Flexibility Score: inf
ROOT
ATOM      1  C   UNL     1       4.227  23.638  45.115  1.00  0.00     0.000 C 
ENDROOT
BRANCH   1   2
ATOM      2  C   UNL     1       4.468  22.158  45.451  1.00  0.00     0.000 C 
BRANCH   2   3
ATOM      3  C   UNL     1       5.747  21.947  46.290  1.00  0.00     0.000 C 
BRANCH   3   4
ATOM      4  C   UNL     1       6.585  23.224  46.475  1.00  0.00     0.000 C 
BRANCH   4   5
ATOM      5  C   UNL     1       8.097  22.955  46.449  1.00  0.00     0.000 C 
BRANCH   5   6
ATOM      6  C   UNL     1       8.716  23.167  45.058  1.00  0.00     0.000 C 
BRANCH   6   7
ATOM      7  C   UNL     1       8.226  24.459  44.383  1.00  0.00     0.000 C 
BRANCH   7   8
ATOM      8  C   UNL     1       7.414  24.187  43.106  1.00  0.00     0.000 C 
BRANCH   8   9
ATOM      9  C   UNL     1       8.177  23.302  42.105  1.00  0.00     0.000 C 
BRANCH   9  10
ATOM     10  C   UNL     1       7.264  22.292  41.391  1.00  0.00     0.000 C 
BRANCH  10  11
ATOM     11  C   UNL     1       6.105  21.813  42.279  1.00  0.00     0.000 C 
BRANCH  11  12
ATOM     12  C   UNL     1       6.188  20.297  42.518  1.00  0.00     0.000 C 
BRANCH  12  13
ATOM     13  C   UNL     1       6.920  19.939  43.825  1.00  0.00     0.006 C 
BRANCH  13  14
ATOM     14  C   UNL     1       8.423  19.665  43.653  1.00  0.00     0.053 C 
BRANCH  14  15
ATOM     15  C   UNL     1       9.082  19.312  44.950  1.00  0.00     0.041 C 
ATOM     16  O   UNL     1       8.492  19.537  46.041  1.00  0.00    -0.550 OA
ATOM     17  O   UNL     1      10.365  18.779  44.959  1.00  0.00    -0.550 OA
ENDBRANCH  14  15
ENDBRANCH  13  14
ENDBRANCH  12  13
ENDBRANCH  11  12
ENDBRANCH  10  11
ENDBRANCH   9  10
ENDBRANCH   8   9
ENDBRANCH   7   8
ENDBRANCH   6   7
ENDBRANCH   5   6
ENDBRANCH   4   5
ENDBRANCH   3   4
ENDBRANCH   2   3
ENDBRANCH   1   2
BRANCH   1  18
ATOM     18  C   UNL     1       3.390  23.782  43.840  1.00  0.00     0.000 C 
BRANCH  18  19
ATOM     19  C   UNL     1       3.973  24.862  42.914  1.00  0.00     0.000 C 
BRANCH  19  20
ATOM     20  C   UNL     1       3.133  26.154  42.888  1.00  0.00     0.000 C 
BRANCH  20  21
ATOM     21  C   UNL     1       1.898  26.144  43.808  1.00  0.00     0.000 C 
BRANCH  21  22
ATOM     22  C   UNL     1       1.003  27.381  43.625  1.00  0.00     0.000 C 
BRANCH  22  23
ATOM     23  C   UNL     1       1.246  28.104  42.287  1.00  0.00     0.000 C 
BRANCH  23  24
ATOM     24  C   UNL     1       0.207  27.800  41.189  1.00  0.00    -0.000 C 
BRANCH  24  25
ATOM     25  C   UNL     1      -0.346  29.068  40.514  1.00  0.00    -0.000 C 
BRANCH  25  26
ATOM     26  C   UNL     1       0.193  30.359  41.145  1.00  0.00    -0.000 C 
BRANCH  26  27
ATOM     27  C   UNL     1      -0.919  31.382  41.435  1.00  0.00    -0.000 C 
BRANCH  27  28
ATOM     28  C   UNL     1      -2.294  30.724  41.643  1.00  0.00    -0.000 C 
BRANCH  28  29
ATOM     29  C   UNL     1      -2.724  30.655  43.125  1.00  0.00    -0.000 C 
BRANCH  29  30
ATOM     30  C   UNL     1      -2.686  29.217  43.674  1.00  0.00    -0.000 C 
BRANCH  30  31
ATOM     31  C   UNL     1      -1.783  29.083  44.910  1.00  0.00    -0.003 C 
ATOM     32  C   UNL     1      -0.863  30.286  45.104  1.00  0.00     0.004 C 
ENDBRANCH  30  31
ENDBRANCH  29  30
ENDBRANCH  28  29
ENDBRANCH  27  28
ENDBRANCH  26  27
ENDBRANCH  25  26
ENDBRANCH  24  25
ENDBRANCH  23  24
ENDBRANCH  22  23
ENDBRANCH  21  22
ENDBRANCH  20  21
ENDBRANCH  19  20
ENDBRANCH  18  19
ENDBRANCH   1  18
TORSDOF 28
ENDMDL
MODEL 2
REMARK VINA RESULT:    -6.446      1.413      3.054
REMARK INTER + INTRA:         -21.673
REMARK INTER:                 -17.635
REMARK INTRA:                  -4.038
REMARK UNBOUND:                -4.677
REMARK SMILES CCCCCCCCCCCCCCCCCCCCCCCCCCCCCC(=O)[O-]
REMARK SMILES IDX 16 1 17 2 18 3 19 4 20 5 21 6 22 7 23 8 24 9 25 10 26 11
REMARK SMILES IDX 27 12 28 13 29 14 30 15 31 16 32 17 15 18 14 19 13 20 12 21
REMARK SMILES IDX 11 22 10 23 9 24 8 25 7 26 6 27 5 28 4 29 3 30 2 31 1 32
REMARK H PARENT
REMARK Flexibility Score: inf
ROOT
ATOM      1  C   UNL     1       6.754  23.374  42.500  1.00  0.00     0.000 C 
ENDROOT
BRANCH   1   2
ATOM      2  C   UNL     1       5.584  22.467  42.089  1.00  0.00     0.000 C 
BRANCH   2   3
ATOM      3  C   UNL     1       5.932  20.967  42.213  1.00  0.00     0.000 C 
BRANCH   3   4
ATOM      4  C   UNL     1       5.755  20.405  43.634  1.00  0.00     0.000 C 
BRANCH   4   5
ATOM      5  C   UNL     1       4.466  20.893  44.313  1.00  0.00     0.000 C 
BRANCH   5   6
ATOM      6  C   UNL     1       4.717  21.483  45.711  1.00  0.00     0.000 C 
BRANCH   6   7
ATOM      7  C   UNL     1       6.186  21.365  46.148  1.00  0.00     0.000 C 
BRANCH   7   8
ATOM      8  C   UNL     1       6.813  22.728  46.486  1.00  0.00     0.000 C 
BRANCH   8   9
ATOM      9  C   UNL     1       8.327  22.760  46.210  1.00  0.00     0.000 C 
BRANCH   9  10
ATOM     10  C   UNL     1       8.711  22.005  44.928  1.00  0.00     0.000 C 
BRANCH  10  11
ATOM     11  C   UNL     1       9.560  20.755  45.208  1.00  0.00     0.000 C 
BRANCH  11  12
ATOM     12  C   UNL     1       9.351  19.694  44.117  1.00  0.00     0.000 C 
BRANCH  12  13
ATOM     13  C   UNL     1      10.119  18.389  44.399  1.00  0.00     0.006 C 
BRANCH  13  14
ATOM     14  C   UNL     1      11.090  18.472  45.588  1.00  0.00     0.053 C 
BRANCH  14  15
ATOM     15  C   UNL     1      12.085  17.353  45.581  1.00  0.00     0.041 C 
ATOM     16  O   UNL     1      13.312  17.596  45.738  1.00  0.00    -0.550 OA
ATOM     17  O   UNL     1      11.665  16.048  45.353  1.00  0.00    -0.550 OA
ENDBRANCH  14  15
ENDBRANCH  13  14
ENDBRANCH  12  13
ENDBRANCH  11  12
ENDBRANCH  10  11
ENDBRANCH   9  10
ENDBRANCH   8   9
ENDBRANCH   7   8
ENDBRANCH   6   7
ENDBRANCH   5   6
ENDBRANCH   4   5
ENDBRANCH   3   4
ENDBRANCH   2   3
ENDBRANCH   1   2
BRANCH   1  18
ATOM     18  C   UNL     1       6.284  24.475  43.456  1.00  0.00     0.000 C 
BRANCH  18  19
ATOM     19  C   UNL     1       4.866  24.948  43.102  1.00  0.00     0.000 C 
BRANCH  19  20
ATOM     20  C   UNL     1       3.867  24.793  44.266  1.00  0.00     0.000 C 
BRANCH  20  21
ATOM     21  C   UNL     1       2.464  25.370  43.997  1.00  0.00     0.000 C 
BRANCH  21  22
ATOM     22  C   UNL     1       2.498  26.672  43.178  1.00  0.00     0.000 C 
BRANCH  22  23
ATOM     23  C   UNL     1       1.103  27.290  42.976  1.00  0.00     0.000 C 
BRANCH  23  24
ATOM     24  C   UNL     1       0.881  27.954  41.603  1.00  0.00    -0.000 C 
BRANCH  24  25
ATOM     25  C   UNL     1       0.984  29.489  41.651  1.00  0.00    -0.000 C 
BRANCH  25  26
ATOM     26  C   UNL     1       0.166  30.173  40.547  1.00  0.00    -0.000 C 
BRANCH  26  27
ATOM     27  C   UNL     1      -0.995  31.012  41.108  1.00  0.00    -0.000 C 
BRANCH  27  28
ATOM     28  C   UNL     1      -2.256  30.175  41.385  1.00  0.00    -0.000 C 
BRANCH  28  29
ATOM     29  C   UNL     1      -2.660  30.147  42.875  1.00  0.00    -0.000 C 
BRANCH  29  30
ATOM     30  C   UNL     1      -2.333  28.797  43.540  1.00  0.00    -0.000 C 
BRANCH  30  31
ATOM     31  C   UNL     1      -1.609  28.963  44.885  1.00  0.00    -0.003 C 
ATOM     32  C   UNL     1      -0.819  30.267  44.974  1.00  0.00     0.004 C 
ENDBRANCH  30  31
ENDBRANCH  29  30
ENDBRANCH  28  29
ENDBRANCH  27  28
ENDBRANCH  26  27
ENDBRANCH  25  26
ENDBRANCH  24  25
ENDBRANCH  23  24
ENDBRANCH  22  23
ENDBRANCH  21  22
ENDBRANCH  20  21
ENDBRANCH  19  20
ENDBRANCH  18  19
ENDBRANCH   1  18
TORSDOF 28
ENDMDL
MODEL 3
REMARK VINA RESULT:    -6.407      3.526     10.795
REMARK INTER + INTRA:         -21.571
REMARK INTER:                 -17.037
REMARK INTRA:                  -4.534
REMARK UNBOUND:                -4.677
REMARK SMILES CCCCCCCCCCCCCCCCCCCCCCCCCCCCCC(=O)[O-]
REMARK SMILES IDX 16 1 17 2 18 3 19 4 20 5 21 6 22 7 23 8 24 9 25 10 26 11
REMARK SMILES IDX 27 12 28 13 29 14 30 15 31 16 32 17 15 18 14 19 13 20 12 21
REMARK SMILES IDX 11 22 10 23 9 24 8 25 7 26 6 27 5 28 4 29 3 30 2 31 1 32
REMARK H PARENT
REMARK Flexibility Score: inf
ROOT
ATOM      1  C   UNL     1       4.292  24.758  42.576  1.00  0.00     0.000 C 
ENDROOT
BRANCH   1   2
ATOM      2  C   UNL     1       3.253  24.275  43.599  1.00  0.00     0.000 C 
BRANCH   2   3
ATOM      3  C   UNL     1       2.651  25.438  44.418  1.00  0.00     0.000 C 
BRANCH   3   4
ATOM      4  C   UNL     1       1.520  26.186  43.694  1.00  0.00     0.000 C 
BRANCH   4   5
ATOM      5  C   UNL     1       1.978  27.524  43.093  1.00  0.00     0.000 C 
BRANCH   5   6
ATOM      6  C   UNL     1       1.132  27.954  41.882  1.00  0.00     0.000 C 
BRANCH   6   7
ATOM      7  C   UNL     1       1.156  29.475  41.655  1.00  0.00     0.000 C 
BRANCH   7   8
ATOM      8  C   UNL     1       0.290  29.907  40.460  1.00  0.00     0.000 C 
BRANCH   8   9
ATOM      9  C   UNL     1      -0.884  28.942  40.209  1.00  0.00     0.000 C 
BRANCH   9  10
ATOM     10  C   UNL     1      -2.118  29.279  41.061  1.00  0.00     0.000 C 
BRANCH  10  11
ATOM     11  C   UNL     1      -2.360  30.792  41.181  1.00  0.00     0.000 C 
BRANCH  11  12
ATOM     12  C   UNL     1      -2.281  31.245  42.647  1.00  0.00     0.000 C 
BRANCH  12  13
ATOM     13  C   UNL     1      -2.519  30.094  43.641  1.00  0.00     0.006 C 
BRANCH  13  14
ATOM     14  C   UNL     1      -1.361  29.858  44.624  1.00  0.00     0.053 C 
BRANCH  14  15
ATOM     15  C   UNL     1      -1.222  28.414  44.994  1.00  0.00     0.041 C 
ATOM     16  O   UNL     1      -1.685  27.520  44.237  1.00  0.00    -0.550 OA
ATOM     17  O   UNL     1      -0.625  28.056  46.197  1.00  0.00    -0.550 OA
ENDBRANCH  14  15
ENDBRANCH  13  14
ENDBRANCH  12  13
ENDBRANCH  11  12
ENDBRANCH  10  11
ENDBRANCH   9  10
ENDBRANCH   8   9
ENDBRANCH   7   8
ENDBRANCH   6   7
ENDBRANCH   5   6
ENDBRANCH   4   5
ENDBRANCH   3   4
ENDBRANCH   2   3
ENDBRANCH   1   2
BRANCH   1  18
ATOM     18  C   UNL     1       5.514  25.360  43.278  1.00  0.00     0.000 C 
BRANCH  18  19
ATOM     19  C   UNL     1       6.767  24.503  43.040  1.00  0.00     0.000 C 
BRANCH  19  20
ATOM     20  C   UNL     1       7.796  24.604  44.183  1.00  0.00     0.000 C 
BRANCH  20  21
ATOM     21  C   UNL     1       8.093  23.278  44.908  1.00  0.00     0.000 C 
BRANCH  21  22
ATOM     22  C   UNL     1       7.903  23.371  46.432  1.00  0.00     0.000 C 
BRANCH  22  23
ATOM     23  C   UNL     1       6.449  23.122  46.870  1.00  0.00     0.000 C 
BRANCH  23  24
ATOM     24  C   UNL     1       5.513  22.618  45.754  1.00  0.00    -0.000 C 
BRANCH  24  25
ATOM     25  C   UNL     1       5.005  21.185  45.994  1.00  0.00    -0.000 C 
BRANCH  25  26
ATOM     26  C   UNL     1       4.883  20.374  44.697  1.00  0.00    -0.000 C 
BRANCH  26  27
ATOM     27  C   UNL     1       5.324  21.174  43.458  1.00  0.00    -0.000 C 
BRANCH  27  28
ATOM     28  C   UNL     1       6.545  20.558  42.754  1.00  0.00    -0.000 C 
BRANCH  28  29
ATOM     29  C   UNL     1       7.446  19.731  43.697  1.00  0.00    -0.000 C 
BRANCH  29  30
ATOM     30  C   UNL     1       8.930  20.117  43.568  1.00  0.00    -0.000 C 
BRANCH  30  31
ATOM     31  C   UNL     1       9.686  20.003  44.902  1.00  0.00    -0.003 C 
ATOM     32  C   UNL     1       8.750  19.873  46.102  1.00  0.00     0.004 C 
ENDBRANCH  30  31
ENDBRANCH  29  30
ENDBRANCH  28  29
ENDBRANCH  27  28
ENDBRANCH  26  27
ENDBRANCH  25  26
ENDBRANCH  24  25
ENDBRANCH  23  24
ENDBRANCH  22  23
ENDBRANCH  21  22
ENDBRANCH  20  21
ENDBRANCH  19  20
ENDBRANCH  18  19
ENDBRANCH   1  18
TORSDOF 28
ENDMDL
MODEL 4
REMARK VINA RESULT:    -6.398      3.608     10.788
REMARK INTER + INTRA:         -21.546
REMARK INTER:                 -17.420
REMARK INTRA:                  -4.126
REMARK UNBOUND:                -4.677
REMARK SMILES CCCCCCCCCCCCCCCCCCCCCCCCCCCCCC(=O)[O-]
REMARK SMILES IDX 16 1 17 2 18 3 19 4 20 5 21 6 22 7 23 8 24 9 25 10 26 11
REMARK SMILES IDX 27 12 28 13 29 14 30 15 31 16 32 17 15 18 14 19 13 20 12 21
REMARK SMILES IDX 11 22 10 23 9 24 8 25 7 26 6 27 5 28 4 29 3 30 2 31 1 32
REMARK H PARENT
REMARK Flexibility Score: inf
ROOT
ATOM      1  C   UNL     1       4.026  23.721  45.053  1.00  0.00     0.000 C 
ENDROOT
BRANCH   1   2
ATOM      2  C   UNL     1       3.575  23.988  43.609  1.00  0.00     0.000 C 
BRANCH   2   3
ATOM      3  C   UNL     1       4.228  25.256  43.016  1.00  0.00     0.000 C 
BRANCH   3   4
ATOM      4  C   UNL     1       3.264  26.447  42.884  1.00  0.00     0.000 C 
BRANCH   4   5
ATOM      5  C   UNL     1       1.910  26.198  43.566  1.00  0.00     0.000 C 
BRANCH   5   6
ATOM      6  C   UNL     1       0.882  27.303  43.271  1.00  0.00     0.000 C 
BRANCH   6   7
ATOM      7  C   UNL     1       1.415  28.360  42.289  1.00  0.00     0.000 C 
BRANCH   7   8
ATOM      8  C   UNL     1       1.003  28.077  40.835  1.00  0.00     0.000 C 
BRANCH   8   9
ATOM      9  C   UNL     1       0.517  29.344  40.108  1.00  0.00     0.000 C 
BRANCH   9  10
ATOM     10  C   UNL     1      -0.996  29.571  40.262  1.00  0.00     0.000 C 
BRANCH  10  11
ATOM     11  C   UNL     1      -1.327  30.875  41.003  1.00  0.00     0.000 C 
BRANCH  11  12
ATOM     12  C   UNL     1      -2.487  30.667  41.988  1.00  0.00     0.000 C 
BRANCH  12  13
ATOM     13  C   UNL     1      -2.345  29.373  42.812  1.00  0.00     0.006 C 
BRANCH  13  14
ATOM     14  C   UNL     1      -2.639  29.544  44.312  1.00  0.00     0.053 C 
BRANCH  14  15
ATOM     15  C   UNL     1      -1.405  29.398  45.147  1.00  0.00     0.041 C 
ATOM     16  O   UNL     1      -1.261  28.391  45.892  1.00  0.00    -0.550 OA
ATOM     17  O   UNL     1      -0.436  30.394  45.141  1.00  0.00    -0.550 OA
ENDBRANCH  14  15
ENDBRANCH  13  14
ENDBRANCH  12  13
ENDBRANCH  11  12
ENDBRANCH  10  11
ENDBRANCH   9  10
ENDBRANCH   8   9
ENDBRANCH   7   8
ENDBRANCH   6   7
ENDBRANCH   5   6
ENDBRANCH   4   5
ENDBRANCH   3   4
ENDBRANCH   2   3
ENDBRANCH   1   2
BRANCH   1  18
ATOM     18  C   UNL     1       4.479  22.267  45.226  1.00  0.00     0.000 C 
BRANCH  18  19
ATOM     19  C   UNL     1       5.729  22.178  46.115  1.00  0.00     0.000 C 
BRANCH  19  20
ATOM     20  C   UNL     1       6.142  23.535  46.718  1.00  0.00     0.000 C 
BRANCH  20  21
ATOM     21  C   UNL     1       7.641  23.867  46.600  1.00  0.00     0.000 C 
BRANCH  21  22
ATOM     22  C   UNL     1       8.467  22.710  46.013  1.00  0.00     0.000 C 
BRANCH  22  23
ATOM     23  C   UNL     1       8.905  22.964  44.559  1.00  0.00     0.000 C 
BRANCH  23  24
ATOM     24  C   UNL     1       8.229  24.171  43.880  1.00  0.00    -0.000 C 
BRANCH  24  25
ATOM     25  C   UNL     1       7.453  23.791  42.606  1.00  0.00    -0.000 C 
BRANCH  25  26
ATOM     26  C   UNL     1       7.645  22.319  42.212  1.00  0.00    -0.000 C 
BRANCH  26  27
ATOM     27  C   UNL     1       6.315  21.547  42.155  1.00  0.00    -0.000 C 
BRANCH  27  28
ATOM     28  C   UNL     1       6.448  20.095  42.644  1.00  0.00    -0.000 C 
BRANCH  28  29
ATOM     29  C   UNL     1       7.105  19.972  44.036  1.00  0.00    -0.000 C 
BRANCH  29  30
ATOM     30  C   UNL     1       8.173  18.865  44.078  1.00  0.00    -0.000 C 
BRANCH  30  31
ATOM     31  C   UNL     1       9.604  19.426  44.093  1.00  0.00    -0.003 C 
ATOM     32  C   UNL     1      10.209  19.464  45.495  1.00  0.00     0.004 C 
ENDBRANCH  30  31
ENDBRANCH  29  30
ENDBRANCH  28  29
ENDBRANCH  27  28
ENDBRANCH  26  27
ENDBRANCH  25  26
ENDBRANCH  24  25
ENDBRANCH  23  24
ENDBRANCH  22  23
ENDBRANCH  21  22
ENDBRANCH  20  21
ENDBRANCH  19  20
ENDBRANCH  18  19
ENDBRANCH   1  18
TORSDOF 28
ENDMDL
MODEL 5
REMARK VINA RESULT:    -6.347      3.917     11.430
REMARK INTER + INTRA:         -21.413
REMARK INTER:                 -17.181
REMARK INTRA:                  -4.232
REMARK UNBOUND:                -4.677
REMARK SMILES CCCCCCCCCCCCCCCCCCCCCCCCCCCCCC(=O)[O-]
REMARK SMILES IDX 16 1 17 2 18 3 19 4 20 5 21 6 22 7 23 8 24 9 25 10 26 11
REMARK SMILES IDX 27 12 28 13 29 14 30 15 31 16 32 17 15 18 14 19 13 20 12 21
REMARK SMILES IDX 11 22 10 23 9 24 8 25 7 26 6 27 5 28 4 29 3 30 2 31 1 32
REMARK H PARENT
REMARK Flexibility Score: inf
ROOT
ATOM      1  C   UNL     1       7.323  24.264  44.397  1.00  0.00     0.000 C 
ENDROOT
BRANCH   1   2
ATOM      2  C   UNL     1       5.842  24.662  44.494  1.00  0.00     0.000 C 
BRANCH   2   3
ATOM      3  C   UNL     1       5.366  25.454  43.257  1.00  0.00     0.000 C 
BRANCH   3   4
ATOM      4  C   UNL     1       3.939  25.099  42.804  1.00  0.00     0.000 C 
BRANCH   4   5
ATOM      5  C   UNL     1       2.973  24.892  43.981  1.00  0.00     0.000 C 
BRANCH   5   6
ATOM      6  C   UNL     1       1.803  25.890  43.974  1.00  0.00     0.000 C 
BRANCH   6   7
ATOM      7  C   UNL     1       2.012  27.039  42.973  1.00  0.00     0.000 C 
BRANCH   7   8
ATOM      8  C   UNL     1       1.156  28.272  43.303  1.00  0.00     0.000 C 
BRANCH   8   9
ATOM      9  C   UNL     1       0.295  28.067  44.563  1.00  0.00     0.000 C 
BRANCH   9  10
ATOM     10  C   UNL     1      -1.206  27.975  44.245  1.00  0.00     0.000 C 
BRANCH  10  11
ATOM     11  C   UNL     1      -1.976  29.241  44.649  1.00  0.00     0.000 C 
BRANCH  11  12
ATOM     12  C   UNL     1      -2.857  29.739  43.493  1.00  0.00     0.000 C 
BRANCH  12  13
ATOM     13  C   UNL     1      -2.141  30.766  42.596  1.00  0.00     0.006 C 
BRANCH  13  14
ATOM     14  C   UNL     1      -2.233  30.465  41.091  1.00  0.00     0.053 C 
BRANCH  14  15
ATOM     15  C   UNL     1      -1.054  29.683  40.601  1.00  0.00     0.041 C 
ATOM     16  O   UNL     1      -1.120  28.427  40.516  1.00  0.00    -0.550 OA
ATOM     17  O   UNL     1       0.132  30.333  40.285  1.00  0.00    -0.550 OA
ENDBRANCH  14  15
ENDBRANCH  13  14
ENDBRANCH  12  13
ENDBRANCH  11  12
ENDBRANCH  10  11
ENDBRANCH   9  10
ENDBRANCH   8   9
ENDBRANCH   7   8
ENDBRANCH   6   7
ENDBRANCH   5   6
ENDBRANCH   4   5
ENDBRANCH   3   4
ENDBRANCH   2   3
ENDBRANCH   1   2
BRANCH   1  18
ATOM     18  C   UNL     1       7.801  24.280  42.941  1.00  0.00     0.000 C 
BRANCH  18  19
ATOM     19  C   UNL     1       8.157  22.865  42.460  1.00  0.00     0.000 C 
BRANCH  19  20
ATOM     20  C   UNL     1       7.009  22.178  41.694  1.00  0.00     0.000 C 
BRANCH  20  21
ATOM     21  C   UNL     1       6.393  20.960  42.406  1.00  0.00     0.000 C 
BRANCH  21  22
ATOM     22  C   UNL     1       5.093  21.298  43.156  1.00  0.00     0.000 C 
BRANCH  22  23
ATOM     23  C   UNL     1       4.959  20.544  44.492  1.00  0.00     0.000 C 
BRANCH  23  24
ATOM     24  C   UNL     1       4.916  21.445  45.742  1.00  0.00    -0.000 C 
BRANCH  24  25
ATOM     25  C   UNL     1       6.192  21.352  46.597  1.00  0.00    -0.000 C 
BRANCH  25  26
ATOM     26  C   UNL     1       7.335  20.619  45.880  1.00  0.00    -0.000 C 
BRANCH  26  27
ATOM     27  C   UNL     1       8.620  21.463  45.805  1.00  0.00    -0.000 C 
BRANCH  27  28
ATOM     28  C   UNL     1       9.796  20.703  45.169  1.00  0.00    -0.000 C 
BRANCH  28  29
ATOM     29  C   UNL     1       9.354  19.578  44.209  1.00  0.00    -0.000 C 
BRANCH  29  30
ATOM     30  C   UNL     1      10.225  18.317  44.352  1.00  0.00    -0.000 C 
BRANCH  30  31
ATOM     31  C   UNL     1      11.250  18.435  45.491  1.00  0.00    -0.003 C 
ATOM     32  C   UNL     1      11.983  17.123  45.766  1.00  0.00     0.004 C 
ENDBRANCH  30  31
ENDBRANCH  29  30
ENDBRANCH  28  29
ENDBRANCH  27  28
ENDBRANCH  26  27
ENDBRANCH  25  26
ENDBRANCH  24  25
ENDBRANCH  23  24
ENDBRANCH  22  23
ENDBRANCH  21  22
ENDBRANCH  20  21
ENDBRANCH  19  20
ENDBRANCH  18  19
ENDBRANCH   1  18
TORSDOF 28
ENDMDL
MODEL 6
REMARK VINA RESULT:    -6.325      3.644     10.782
REMARK INTER + INTRA:         -21.355
REMARK INTER:                 -17.593
REMARK INTRA:                  -3.762
REMARK UNBOUND:                -4.677
REMARK SMILES CCCCCCCCCCCCCCCCCCCCCCCCCCCCCC(=O)[O-]
REMARK SMILES IDX 16 1 17 2 18 3 19 4 20 5 21 6 22 7 23 8 24 9 25 10 26 11
REMARK SMILES IDX 27 12 28 13 29 14 30 15 31 16 32 17 15 18 14 19 13 20 12 21
REMARK SMILES IDX 11 22 10 23 9 24 8 25 7 26 6 27 5 28 4 29 3 30 2 31 1 32
REMARK H PARENT
REMARK Flexibility Score: inf
ROOT
ATOM      1  C   UNL     1       4.924  22.585  45.390  1.00  0.00     0.000 C 
ENDROOT
BRANCH   1   2
ATOM      2  C   UNL     1       3.906  23.475  44.661  1.00  0.00     0.000 C 
BRANCH   2   3
ATOM      3  C   UNL     1       4.484  24.864  44.312  1.00  0.00     0.000 C 
BRANCH   3   4
ATOM      4  C   UNL     1       3.578  25.701  43.394  1.00  0.00     0.000 C 
BRANCH   4   5
ATOM      5  C   UNL     1       2.092  25.604  43.773  1.00  0.00     0.000 C 
BRANCH   5   6
ATOM      6  C   UNL     1       1.361  26.953  43.669  1.00  0.00     0.000 C 
BRANCH   6   7
ATOM      7  C   UNL     1       1.571  27.637  42.308  1.00  0.00     0.000 C 
BRANCH   7   8
ATOM      8  C   UNL     1       0.248  28.060  41.649  1.00  0.00     0.000 C 
BRANCH   8   9
ATOM      9  C   UNL     1       0.468  28.798  40.316  1.00  0.00     0.000 C 
BRANCH   9  10
ATOM     10  C   UNL     1      -0.202  30.180  40.287  1.00  0.00     0.000 C 
BRANCH  10  11
ATOM     11  C   UNL     1      -0.315  30.814  41.682  1.00  0.00     0.000 C 
BRANCH  11  12
ATOM     12  C   UNL     1      -1.756  31.261  41.967  1.00  0.00     0.000 C 
BRANCH  12  13
ATOM     13  C   UNL     1      -2.189  30.991  43.420  1.00  0.00     0.006 C 
BRANCH  13  14
ATOM     14  C   UNL     1      -2.777  29.590  43.654  1.00  0.00     0.053 C 
BRANCH  14  15
ATOM     15  C   UNL     1      -1.963  28.794  44.628  1.00  0.00     0.041 C 
ATOM     16  O   UNL     1      -1.854  27.546  44.489  1.00  0.00    -0.550 OA
ATOM     17  O   UNL     1      -1.367  29.421  45.714  1.00  0.00    -0.550 OA
ENDBRANCH  14  15
ENDBRANCH  13  14
ENDBRANCH  12  13
ENDBRANCH  11  12
ENDBRANCH  10  11
ENDBRANCH   9  10
ENDBRANCH   8   9
ENDBRANCH   7   8
ENDBRANCH   6   7
ENDBRANCH   5   6
ENDBRANCH   4   5
ENDBRANCH   3   4
ENDBRANCH   2   3
ENDBRANCH   1   2
BRANCH   1  18
ATOM     18  C   UNL     1       4.386  21.160  45.557  1.00  0.00     0.000 C 
BRANCH  18  19
ATOM     19  C   UNL     1       4.477  20.376  44.238  1.00  0.00     0.000 C 
BRANCH  19  20
ATOM     20  C   UNL     1       5.895  20.368  43.634  1.00  0.00     0.000 C 
BRANCH  20  21
ATOM     21  C   UNL     1       5.978  20.840  42.170  1.00  0.00     0.000 C 
BRANCH  21  22
ATOM     22  C   UNL     1       6.375  22.320  42.039  1.00  0.00     0.000 C 
BRANCH  22  23
ATOM     23  C   UNL     1       7.899  22.526  41.962  1.00  0.00     0.000 C 
BRANCH  23  24
ATOM     24  C   UNL     1       8.386  23.922  42.399  1.00  0.00    -0.000 C 
BRANCH  24  25
ATOM     25  C   UNL     1       7.777  24.384  43.735  1.00  0.00    -0.000 C 
BRANCH  25  26
ATOM     26  C   UNL     1       8.757  24.258  44.909  1.00  0.00    -0.000 C 
BRANCH  26  27
ATOM     27  C   UNL     1       8.097  23.663  46.166  1.00  0.00    -0.000 C 
BRANCH  27  28
ATOM     28  C   UNL     1       8.100  22.125  46.169  1.00  0.00    -0.000 C 
BRANCH  28  29
ATOM     29  C   UNL     1       9.230  21.510  45.315  1.00  0.00    -0.000 C 
BRANCH  29  30
ATOM     30  C   UNL     1       9.520  20.049  45.701  1.00  0.00    -0.000 C 
BRANCH  30  31
ATOM     31  C   UNL     1       9.175  19.062  44.575  1.00  0.00    -0.003 C 
ATOM     32  C   UNL     1       9.638  19.545  43.202  1.00  0.00     0.004 C 
ENDBRANCH  30  31
ENDBRANCH  29  30
ENDBRANCH  28  29
ENDBRANCH  27  28
ENDBRANCH  26  27
ENDBRANCH  25  26
ENDBRANCH  24  25
ENDBRANCH  23  24
ENDBRANCH  22  23
ENDBRANCH  21  22
ENDBRANCH  20  21
ENDBRANCH  19  20
ENDBRANCH  18  19
ENDBRANCH   1  18
TORSDOF 28
ENDMDL
MODEL 7
REMARK VINA RESULT:    -6.259      3.836     11.071
REMARK INTER + INTRA:         -21.180
REMARK INTER:                 -16.962
REMARK INTRA:                  -4.218
REMARK UNBOUND:                -4.677
REMARK SMILES CCCCCCCCCCCCCCCCCCCCCCCCCCCCCC(=O)[O-]
REMARK SMILES IDX 16 1 17 2 18 3 19 4 20 5 21 6 22 7 23 8 24 9 25 10 26 11
REMARK SMILES IDX 27 12 28 13 29 14 30 15 31 16 32 17 15 18 14 19 13 20 12 21
REMARK SMILES IDX 11 22 10 23 9 24 8 25 7 26 6 27 5 28 4 29 3 30 2 31 1 32
REMARK H PARENT
REMARK Flexibility Score: inf
ROOT
ATOM      1  C   UNL     1       6.433  24.192  43.018  1.00  0.00     0.000 C 
ENDROOT
BRANCH   1   2
ATOM      2  C   UNL     1       5.099  24.954  42.982  1.00  0.00     0.000 C 
BRANCH   2   3
ATOM      3  C   UNL     1       4.376  24.935  44.347  1.00  0.00     0.000 C 
BRANCH   3   4
ATOM      4  C   UNL     1       2.855  25.136  44.247  1.00  0.00     0.000 C 
BRANCH   4   5
ATOM      5  C   UNL     1       2.464  26.260  43.276  1.00  0.00     0.000 C 
BRANCH   5   6
ATOM      6  C   UNL     1       1.223  27.042  43.738  1.00  0.00     0.000 C 
BRANCH   6   7
ATOM      7  C   UNL     1       0.289  27.413  42.574  1.00  0.00     0.000 C 
BRANCH   7   8
ATOM      8  C   UNL     1       1.034  28.095  41.414  1.00  0.00     0.000 C 
BRANCH   8   9
ATOM      9  C   UNL     1       0.966  29.630  41.498  1.00  0.00     0.000 C 
BRANCH   9  10
ATOM     10  C   UNL     1       0.053  30.242  40.423  1.00  0.00     0.000 C 
BRANCH  10  11
ATOM     11  C   UNL     1      -1.226  30.856  41.013  1.00  0.00     0.000 C 
BRANCH  11  12
ATOM     12  C   UNL     1      -2.341  29.805  41.121  1.00  0.00     0.000 C 
BRANCH  12  13
ATOM     13  C   UNL     1      -2.736  29.502  42.578  1.00  0.00     0.006 C 
BRANCH  13  14
ATOM     14  C   UNL     1      -2.070  30.418  43.617  1.00  0.00     0.053 C 
BRANCH  14  15
ATOM     15  C   UNL     1      -1.649  29.667  44.842  1.00  0.00     0.041 C 
ATOM     16  O   UNL     1      -2.002  28.467  45.000  1.00  0.00    -0.550 OA
ATOM     17  O   UNL     1      -0.910  30.303  45.832  1.00  0.00    -0.550 OA
ENDBRANCH  14  15
ENDBRANCH  13  14
ENDBRANCH  12  13
ENDBRANCH  11  12
ENDBRANCH  10  11
ENDBRANCH   9  10
ENDBRANCH   8   9
ENDBRANCH   7   8
ENDBRANCH   6   7
ENDBRANCH   5   6
ENDBRANCH   4   5
ENDBRANCH   3   4
ENDBRANCH   2   3
ENDBRANCH   1   2
BRANCH   1  18
ATOM     18  C   UNL     1       7.344  24.733  44.125  1.00  0.00     0.000 C 
BRANCH  18  19
ATOM     19  C   UNL     1       8.247  23.624  44.690  1.00  0.00     0.000 C 
BRANCH  19  20
ATOM     20  C   UNL     1       8.050  23.395  46.201  1.00  0.00     0.000 C 
BRANCH  20  21
ATOM     21  C   UNL     1       6.622  22.993  46.615  1.00  0.00     0.000 C 
BRANCH  21  22
ATOM     22  C   UNL     1       6.175  21.654  46.004  1.00  0.00     0.000 C 
BRANCH  22  23
ATOM     23  C   UNL     1       4.661  21.596  45.730  1.00  0.00     0.000 C 
BRANCH  23  24
ATOM     24  C   UNL     1       4.279  21.325  44.261  1.00  0.00    -0.000 C 
BRANCH  24  25
ATOM     25  C   UNL     1       5.066  20.159  43.638  1.00  0.00    -0.000 C 
BRANCH  25  26
ATOM     26  C   UNL     1       5.756  20.545  42.322  1.00  0.00    -0.000 C 
BRANCH  26  27
ATOM     27  C   UNL     1       7.262  20.800  42.500  1.00  0.00    -0.000 C 
BRANCH  27  28
ATOM     28  C   UNL     1       7.862  20.026  43.686  1.00  0.00    -0.000 C 
BRANCH  28  29
ATOM     29  C   UNL     1       9.406  20.014  43.695  1.00  0.00    -0.000 C 
BRANCH  29  30
ATOM     30  C   UNL     1       9.982  20.412  45.066  1.00  0.00    -0.000 C 
BRANCH  30  31
ATOM     31  C   UNL     1      10.165  19.206  46.001  1.00  0.00    -0.003 C 
ATOM     32  C   UNL     1      11.369  18.344  45.625  1.00  0.00     0.004 C 
ENDBRANCH  30  31
ENDBRANCH  29  30
ENDBRANCH  28  29
ENDBRANCH  27  28
ENDBRANCH  26  27
ENDBRANCH  25  26
ENDBRANCH  24  25
ENDBRANCH  23  24
ENDBRANCH  22  23
ENDBRANCH  21  22
ENDBRANCH  20  21
ENDBRANCH  19  20
ENDBRANCH  18  19
ENDBRANCH   1  18
TORSDOF 28
ENDMDL
MODEL 8
REMARK VINA RESULT:    -6.246      0.891      2.334
REMARK INTER + INTRA:         -21.146
REMARK INTER:                 -16.940
REMARK INTRA:                  -4.206
REMARK UNBOUND:                -4.677
REMARK SMILES CCCCCCCCCCCCCCCCCCCCCCCCCCCCCC(=O)[O-]
REMARK SMILES IDX 16 1 17 2 18 3 19 4 20 5 21 6 22 7 23 8 24 9 25 10 26 11
REMARK SMILES IDX 27 12 28 13 29 14 30 15 31 16 32 17 15 18 14 19 13 20 12 21
REMARK SMILES IDX 11 22 10 23 9 24 8 25 7 26 6 27 5 28 4 29 3 30 2 31 1 32
REMARK H PARENT
REMARK Flexibility Score: inf
ROOT
ATOM      1  C   UNL     1       4.429  23.915  44.844  1.00  0.00     0.000 C 
ENDROOT
BRANCH   1   2
ATOM      2  C   UNL     1       4.383  22.522  45.491  1.00  0.00     0.000 C 
BRANCH   2   3
ATOM      3  C   UNL     1       5.695  22.174  46.228  1.00  0.00     0.000 C 
BRANCH   3   4
ATOM      4  C   UNL     1       6.618  23.383  46.456  1.00  0.00     0.000 C 
BRANCH   4   5
ATOM      5  C   UNL     1       8.105  23.042  46.276  1.00  0.00     0.000 C 
BRANCH   5   6
ATOM      6  C   UNL     1       8.680  23.567  44.950  1.00  0.00     0.000 C 
BRANCH   6   7
ATOM      7  C   UNL     1       7.804  24.662  44.318  1.00  0.00     0.000 C 
BRANCH   7   8
ATOM      8  C   UNL     1       7.298  24.278  42.918  1.00  0.00     0.000 C 
BRANCH   8   9
ATOM      9  C   UNL     1       8.258  23.318  42.192  1.00  0.00     0.000 C 
BRANCH   9  10
ATOM     10  C   UNL     1       7.543  22.080  41.628  1.00  0.00     0.000 C 
BRANCH  10  11
ATOM     11  C   UNL     1       6.124  21.907  42.192  1.00  0.00     0.000 C 
BRANCH  11  12
ATOM     12  C   UNL     1       6.031  20.646  43.063  1.00  0.00     0.000 C 
BRANCH  12  13
ATOM     13  C   UNL     1       7.369  19.890  43.165  1.00  0.00     0.006 C 
BRANCH  13  14
ATOM     14  C   UNL     1       7.996  19.901  44.569  1.00  0.00     0.053 C 
BRANCH  14  15
ATOM     15  C   UNL     1       9.471  19.648  44.528  1.00  0.00     0.041 C 
ATOM     16  O   UNL     1       9.964  18.924  43.621  1.00  0.00    -0.550 OA
ATOM     17  O   UNL     1      10.296  20.169  45.516  1.00  0.00    -0.550 OA
ENDBRANCH  14  15
ENDBRANCH  13  14
ENDBRANCH  12  13
ENDBRANCH  11  12
ENDBRANCH  10  11
ENDBRANCH   9  10
ENDBRANCH   8   9
ENDBRANCH   7   8
ENDBRANCH   6   7
ENDBRANCH   5   6
ENDBRANCH   4   5
ENDBRANCH   3   4
ENDBRANCH   2   3
ENDBRANCH   1   2
BRANCH   1  18
ATOM     18  C   UNL     1       3.312  24.075  43.808  1.00  0.00     0.000 C 
BRANCH  18  19
ATOM     19  C   UNL     1       2.550  25.394  44.015  1.00  0.00     0.000 C 
BRANCH  19  20
ATOM     20  C   UNL     1       2.855  26.447  42.931  1.00  0.00     0.000 C 
BRANCH  20  21
ATOM     21  C   UNL     1       1.691  27.403  42.611  1.00  0.00     0.000 C 
BRANCH  21  22
ATOM     22  C   UNL     1       1.266  28.256  43.819  1.00  0.00     0.000 C 
BRANCH  22  23
ATOM     23  C   UNL     1       0.011  27.712  44.525  1.00  0.00     0.000 C 
BRANCH  23  24
ATOM     24  C   UNL     1      -0.628  28.676  45.544  1.00  0.00    -0.000 C 
BRANCH  24  25
ATOM     25  C   UNL     1      -2.045  29.123  45.145  1.00  0.00    -0.000 C 
BRANCH  25  26
ATOM     26  C   UNL     1      -2.416  28.714  43.712  1.00  0.00    -0.000 C 
BRANCH  26  27
ATOM     27  C   UNL     1      -2.864  29.911  42.855  1.00  0.00    -0.000 C 
BRANCH  27  28
ATOM     28  C   UNL     1      -1.875  31.088  42.911  1.00  0.00    -0.000 C 
BRANCH  28  29
ATOM     29  C   UNL     1      -1.177  31.369  41.563  1.00  0.00    -0.000 C 
BRANCH  29  30
ATOM     30  C   UNL     1       0.180  30.650  41.451  1.00  0.00    -0.000 C 
BRANCH  30  31
ATOM     31  C   UNL     1       0.246  29.701  40.244  1.00  0.00    -0.003 C 
ATOM     32  C   UNL     1      -1.083  28.997  39.972  1.00  0.00     0.004 C 
ENDBRANCH  30  31
ENDBRANCH  29  30
ENDBRANCH  28  29
ENDBRANCH  27  28
ENDBRANCH  26  27
ENDBRANCH  25  26
ENDBRANCH  24  25
ENDBRANCH  23  24
ENDBRANCH  22  23
ENDBRANCH  21  22
ENDBRANCH  20  21
ENDBRANCH  19  20
ENDBRANCH  18  19
ENDBRANCH   1  18
TORSDOF 28
ENDMDL
MODEL 9
REMARK VINA RESULT:    -6.233      2.121      3.931
REMARK INTER + INTRA:         -21.112
REMARK INTER:                 -17.379
REMARK INTRA:                  -3.733
REMARK UNBOUND:                -4.677
REMARK SMILES CCCCCCCCCCCCCCCCCCCCCCCCCCCCCC(=O)[O-]
REMARK SMILES IDX 16 1 17 2 18 3 19 4 20 5 21 6 22 7 23 8 24 9 25 10 26 11
REMARK SMILES IDX 27 12 28 13 29 14 30 15 31 16 32 17 15 18 14 19 13 20 12 21
REMARK SMILES IDX 11 22 10 23 9 24 8 25 7 26 6 27 5 28 4 29 3 30 2 31 1 32
REMARK H PARENT
REMARK Flexibility Score: inf
ROOT
ATOM      1  C   UNL     1       7.219  22.315  42.314  1.00  0.00     0.000 C 
ENDROOT
BRANCH   1   2
ATOM      2  C   UNL     1       5.922  21.490  42.342  1.00  0.00     0.000 C 
BRANCH   2   3
ATOM      3  C   UNL     1       5.827  20.590  43.594  1.00  0.00     0.000 C 
BRANCH   3   4
ATOM      4  C   UNL     1       4.514  20.754  44.378  1.00  0.00     0.000 C 
BRANCH   4   5
ATOM      5  C   UNL     1       4.704  21.487  45.715  1.00  0.00     0.000 C 
BRANCH   5   6
ATOM      6  C   UNL     1       6.133  21.355  46.268  1.00  0.00     0.000 C 
BRANCH   6   7
ATOM      7  C   UNL     1       6.891  22.693  46.272  1.00  0.00     0.000 C 
BRANCH   7   8
ATOM      8  C   UNL     1       8.366  22.537  45.867  1.00  0.00     0.000 C 
BRANCH   8   9
ATOM      9  C   UNL     1       8.818  21.065  45.862  1.00  0.00     0.000 C 
BRANCH   9  10
ATOM     10  C   UNL     1       9.622  20.698  44.604  1.00  0.00     0.000 C 
BRANCH  10  11
ATOM     11  C   UNL     1       9.670  19.183  44.352  1.00  0.00     0.000 C 
BRANCH  11  12
ATOM     12  C   UNL     1      10.642  18.497  45.323  1.00  0.00     0.000 C 
BRANCH  12  13
ATOM     13  C   UNL     1      11.459  17.374  44.656  1.00  0.00     0.006 C 
BRANCH  13  14
ATOM     14  C   UNL     1      12.068  16.364  45.641  1.00  0.00     0.053 C 
BRANCH  14  15
ATOM     15  C   UNL     1      13.149  15.543  45.009  1.00  0.00     0.041 C 
ATOM     16  O   UNL     1      12.919  14.907  43.945  1.00  0.00    -0.550 OA
ATOM     17  O   UNL     1      14.393  15.440  45.618  1.00  0.00    -0.550 OA
ENDBRANCH  14  15
ENDBRANCH  13  14
ENDBRANCH  12  13
ENDBRANCH  11  12
ENDBRANCH  10  11
ENDBRANCH   9  10
ENDBRANCH   8   9
ENDBRANCH   7   8
ENDBRANCH   6   7
ENDBRANCH   5   6
ENDBRANCH   4   5
ENDBRANCH   3   4
ENDBRANCH   2   3
ENDBRANCH   1   2
BRANCH   1  18
ATOM     18  C   UNL     1       6.963  23.754  42.774  1.00  0.00     0.000 C 
BRANCH  18  19
ATOM     19  C   UNL     1       5.458  24.055  42.841  1.00  0.00     0.000 C 
BRANCH  19  20
ATOM     20  C   UNL     1       5.101  25.138  43.878  1.00  0.00     0.000 C 
BRANCH  20  21
ATOM     21  C   UNL     1       3.803  24.879  44.665  1.00  0.00     0.000 C 
BRANCH  21  22
ATOM     22  C   UNL     1       2.551  25.419  43.953  1.00  0.00     0.000 C 
BRANCH  22  23
ATOM     23  C   UNL     1       2.874  26.525  42.932  1.00  0.00     0.000 C 
BRANCH  23  24
ATOM     24  C   UNL     1       1.746  27.553  42.714  1.00  0.00    -0.000 C 
BRANCH  24  25
ATOM     25  C   UNL     1       0.513  27.293  43.597  1.00  0.00    -0.000 C 
BRANCH  25  26
ATOM     26  C   UNL     1       0.335  28.353  44.693  1.00  0.00    -0.000 C 
BRANCH  26  27
ATOM     27  C   UNL     1      -0.709  29.419  44.317  1.00  0.00    -0.000 C 
BRANCH  27  28
ATOM     28  C   UNL     1      -1.980  28.815  43.695  1.00  0.00    -0.000 C 
BRANCH  28  29
ATOM     29  C   UNL     1      -2.322  29.399  42.307  1.00  0.00    -0.000 C 
BRANCH  29  30
ATOM     30  C   UNL     1      -2.257  30.937  42.291  1.00  0.00    -0.000 C 
BRANCH  30  31
ATOM     31  C   UNL     1      -1.148  31.470  41.370  1.00  0.00    -0.003 C 
ATOM     32  C   UNL     1      -0.402  30.357  40.637  1.00  0.00     0.004 C 
ENDBRANCH  30  31
ENDBRANCH  29  30
ENDBRANCH  28  29
ENDBRANCH  27  28
ENDBRANCH  26  27
ENDBRANCH  25  26
ENDBRANCH  24  25
ENDBRANCH  23  24
ENDBRANCH  22  23
ENDBRANCH  21  22
ENDBRANCH  20  21
ENDBRANCH  19  20
ENDBRANCH  18  19
ENDBRANCH   1  18
TORSDOF 28
ENDMDL
