MODEL 1
REMARK VINA RESULT:    -4.307      0.000      0.000
REMARK INTER + INTRA:          -8.322
REMARK INTER:                  -7.328
REMARK INTRA:                  -0.993
REMARK UNBOUND:                -0.993
REMARK SMILES CCCCCCCCCCCCCC(=O)[O-]
REMARK SMILES IDX 8 1 9 2 10 3 11 4 12 5 13 6 14 7 15 8 16 9 7 10 6 11 5 12
REMARK SMILES IDX 4 13 3 14 2 15 1 16
REMARK H PARENT
REMARK Flexibility Score: inf
ROOT
ATOM      1  C   UNL     1      10.332 -17.225  31.847  1.00  0.00     0.000 C 
ENDROOT
BRANCH   1   2
ATOM      2  C   UNL     1       9.623 -17.875  33.045  1.00  0.00     0.000 C 
BRANCH   2   3
ATOM      3  C   UNL     1       8.371 -17.100  33.487  1.00  0.00     0.000 C 
BRANCH   3   4
ATOM      4  C   UNL     1       8.329 -16.802  35.002  1.00  0.00     0.000 C 
BRANCH   4   5
ATOM      5  C   UNL     1       9.731 -16.554  35.581  1.00  0.00     0.006 C 
BRANCH   5   6
ATOM      6  C   UNL     1       9.857 -15.129  36.125  1.00  0.00     0.053 C 
BRANCH   6   7
ATOM      7  C   UNL     1      10.898 -14.368  35.368  1.00  0.00     0.041 C 
ATOM      8  O   UNL     1      11.288 -13.245  35.781  1.00  0.00    -0.550 OA
ATOM      9  O   UNL     1      11.403 -14.877  34.178  1.00  0.00    -0.550 OA
ENDBRANCH   6   7
ENDBRANCH   5   6
ENDBRANCH   4   5
ENDBRANCH   3   4
ENDBRANCH   2   3
ENDBRANCH   1   2
BRANCH   1  10
ATOM     10  C   UNL     1      10.996 -18.251  30.909  1.00  0.00     0.000 C 
BRANCH  10  11
ATOM     11  C   UNL     1      10.661 -19.726  31.197  1.00  0.00    -0.000 C 
BRANCH  11  12
ATOM     12  C   UNL     1      10.265 -20.510  29.934  1.00  0.00    -0.000 C 
BRANCH  12  13
ATOM     13  C   UNL     1       8.751 -20.773  29.843  1.00  0.00    -0.000 C 
BRANCH  13  14
ATOM     14  C   UNL     1       7.880 -19.988  30.845  1.00  0.00    -0.000 C 
BRANCH  14  15
ATOM     15  C   UNL     1       6.364 -20.072  30.594  1.00  0.00    -0.003 C 
ATOM     16  C   UNL     1       5.911 -21.461  30.146  1.00  0.00     0.004 C 
ENDBRANCH  14  15
ENDBRANCH  13  14
ENDBRANCH  12  13
ENDBRANCH  11  12
ENDBRANCH  10  11
ENDBRANCH   1  10
TORSDOF 12
ENDMDL
MODEL 2
REMARK VINA RESULT:    -4.292      0.955      1.740
REMARK INTER + INTRA:          -8.296
REMARK INTER:                  -6.898
REMARK INTRA:                  -1.398
REMARK UNBOUND:                -0.993
REMARK SMILES CCCCCCCCCCCCCC(=O)[O-]
REMARK SMILES IDX 8 1 9 2 10 3 11 4 12 5 13 6 14 7 15 8 16 9 7 10 6 11 5 12
REMARK SMILES IDX 4 13 3 14 2 15 1 16
REMARK H PARENT
REMARK Flexibility Score: inf
ROOT
ATOM      1  C   UNL     1      11.002 -18.273  30.913  1.00  0.00     0.000 C 
ENDROOT
BRANCH   1   2
ATOM      2  C   UNL     1      10.123 -17.292  31.704  1.00  0.00     0.000 C 
BRANCH   2   3
ATOM      3  C   UNL     1       9.274 -17.987  32.781  1.00  0.00     0.000 C 
BRANCH   3   4
ATOM      4  C   UNL     1       8.151 -17.096  33.356  1.00  0.00     0.000 C 
BRANCH   4   5
ATOM      5  C   UNL     1       8.180 -17.050  34.892  1.00  0.00     0.006 C 
BRANCH   5   6
ATOM      6  C   UNL     1       9.613 -16.902  35.410  1.00  0.00     0.053 C 
BRANCH   6   7
ATOM      7  C   UNL     1      10.002 -15.459  35.471  1.00  0.00     0.041 C 
ATOM      8  O   UNL     1      10.871 -15.004  34.683  1.00  0.00    -0.550 OA
ATOM      9  O   UNL     1       9.441 -14.628  36.432  1.00  0.00    -0.550 OA
ENDBRANCH   6   7
ENDBRANCH   5   6
ENDBRANCH   4   5
ENDBRANCH   3   4
ENDBRANCH   2   3
ENDBRANCH   1   2
BRANCH   1  10
ATOM     10  C   UNL     1      10.767 -19.744  31.304  1.00  0.00     0.000 C 
BRANCH  10  11
ATOM     11  C   UNL     1      10.267 -20.659  30.171  1.00  0.00    -0.000 C 
BRANCH  11  12
ATOM     12  C   UNL     1       9.600 -19.884  29.022  1.00  0.00    -0.000 C 
BRANCH  12  13
ATOM     13  C   UNL     1       8.067 -19.815  29.155  1.00  0.00    -0.000 C 
BRANCH  13  14
ATOM     14  C   UNL     1       7.419 -20.973  29.941  1.00  0.00    -0.000 C 
BRANCH  14  15
ATOM     15  C   UNL     1       6.043 -20.653  30.553  1.00  0.00    -0.003 C 
ATOM     16  C   UNL     1       6.054 -19.390  31.414  1.00  0.00     0.004 C 
ENDBRANCH  14  15
ENDBRANCH  13  14
ENDBRANCH  12  13
ENDBRANCH  11  12
ENDBRANCH  10  11
ENDBRANCH   1  10
TORSDOF 12
ENDMDL
MODEL 3
REMARK VINA RESULT:    -4.290      1.366      2.633
REMARK INTER + INTRA:          -8.293
REMARK INTER:                  -6.878
REMARK INTRA:                  -1.415
REMARK UNBOUND:                -0.993
REMARK SMILES CCCCCCCCCCCCCC(=O)[O-]
REMARK SMILES IDX 8 1 9 2 10 3 11 4 12 5 13 6 14 7 15 8 16 9 7 10 6 11 5 12
REMARK SMILES IDX 4 13 3 14 2 15 1 16
REMARK H PARENT
REMARK Flexibility Score: inf
ROOT
ATOM      1  C   UNL     1       8.447 -17.226  33.870  1.00  0.00     0.000 C 
ENDROOT
BRANCH   1   2
ATOM      2  C   UNL     1       9.173 -17.182  35.223  1.00  0.00     0.000 C 
BRANCH   2   3
ATOM      3  C   UNL     1       9.856 -15.830  35.489  1.00  0.00     0.000 C 
BRANCH   3   4
ATOM      4  C   UNL     1       9.275 -14.667  34.656  1.00  0.00     0.000 C 
BRANCH   4   5
ATOM      5  C   UNL     1      10.351 -13.970  33.809  1.00  0.00     0.006 C 
BRANCH   5   6
ATOM      6  C   UNL     1      11.735 -14.570  34.075  1.00  0.00     0.053 C 
BRANCH   6   7
ATOM      7  C   UNL     1      12.716 -13.494  34.417  1.00  0.00     0.041 C 
ATOM      8  O   UNL     1      13.013 -13.266  35.619  1.00  0.00    -0.550 OA
ATOM      9  O   UNL     1      13.265 -12.708  33.411  1.00  0.00    -0.550 OA
ENDBRANCH   6   7
ENDBRANCH   5   6
ENDBRANCH   4   5
ENDBRANCH   3   4
ENDBRANCH   2   3
ENDBRANCH   1   2
BRANCH   1  10
ATOM     10  C   UNL     1       9.203 -18.042  32.805  1.00  0.00     0.000 C 
BRANCH  10  11
ATOM     11  C   UNL     1      10.238 -17.256  31.979  1.00  0.00    -0.000 C 
BRANCH  11  12
ATOM     12  C   UNL     1      11.057 -18.152  31.033  1.00  0.00    -0.000 C 
BRANCH  12  13
ATOM     13  C   UNL     1      10.821 -19.654  31.277  1.00  0.00    -0.000 C 
BRANCH  13  14
ATOM     14  C   UNL     1      10.217 -20.430  30.089  1.00  0.00    -0.000 C 
BRANCH  14  15
ATOM     15  C   UNL     1       8.688 -20.602  30.135  1.00  0.00    -0.003 C 
ATOM     16  C   UNL     1       7.940 -19.465  29.440  1.00  0.00     0.004 C 
ENDBRANCH  14  15
ENDBRANCH  13  14
ENDBRANCH  12  13
ENDBRANCH  11  12
ENDBRANCH  10  11
ENDBRANCH   1  10
TORSDOF 12
ENDMDL
MODEL 4
REMARK VINA RESULT:    -4.272      3.342      6.592
REMARK INTER + INTRA:          -8.262
REMARK INTER:                  -6.428
REMARK INTRA:                  -1.834
REMARK UNBOUND:                -0.993
REMARK SMILES CCCCCCCCCCCCCC(=O)[O-]
REMARK SMILES IDX 8 1 9 2 10 3 11 4 12 5 13 6 14 7 15 8 16 9 7 10 6 11 5 12
REMARK SMILES IDX 4 13 3 14 2 15 1 16
REMARK H PARENT
REMARK Flexibility Score: inf
ROOT
ATOM      1  C   UNL     1       7.410 -16.519  32.889  1.00  0.00     0.000 C 
ENDROOT
BRANCH   1   2
ATOM      2  C   UNL     1       8.011 -17.283  31.699  1.00  0.00     0.000 C 
BRANCH   2   3
ATOM      3  C   UNL     1       8.722 -18.579  32.121  1.00  0.00     0.000 C 
BRANCH   3   4
ATOM      4  C   UNL     1      10.249 -18.552  31.889  1.00  0.00     0.000 C 
BRANCH   4   5
ATOM      5  C   UNL     1      10.739 -19.787  31.119  1.00  0.00     0.006 C 
BRANCH   5   6
ATOM      6  C   UNL     1       9.604 -20.408  30.298  1.00  0.00     0.053 C 
BRANCH   6   7
ATOM      7  C   UNL     1       9.732 -20.030  28.857  1.00  0.00     0.041 C 
ATOM      8  O   UNL     1      10.102 -20.884  28.009  1.00  0.00    -0.550 OA
ATOM      9  O   UNL     1       9.491 -18.722  28.457  1.00  0.00    -0.550 OA
ENDBRANCH   6   7
ENDBRANCH   5   6
ENDBRANCH   4   5
ENDBRANCH   3   4
ENDBRANCH   2   3
ENDBRANCH   1   2
BRANCH   1  10
ATOM     10  C   UNL     1       7.356 -17.357  34.180  1.00  0.00     0.000 C 
BRANCH  10  11
ATOM     11  C   UNL     1       8.055 -16.734  35.403  1.00  0.00    -0.000 C 
BRANCH  11  12
ATOM     12  C   UNL     1       9.589 -16.796  35.315  1.00  0.00    -0.000 C 
BRANCH  12  13
ATOM     13  C   UNL     1      10.228 -15.426  35.015  1.00  0.00    -0.000 C 
BRANCH  13  14
ATOM     14  C   UNL     1      11.030 -15.344  33.701  1.00  0.00    -0.000 C 
BRANCH  14  15
ATOM     15  C   UNL     1      10.431 -14.415  32.630  1.00  0.00    -0.003 C 
ATOM     16  C   UNL     1      10.760 -14.860  31.205  1.00  0.00     0.004 C 
ENDBRANCH  14  15
ENDBRANCH  13  14
ENDBRANCH  12  13
ENDBRANCH  11  12
ENDBRANCH  10  11
ENDBRANCH   1  10
TORSDOF 12
ENDMDL
MODEL 5
REMARK VINA RESULT:    -4.250      3.426      6.749
REMARK INTER + INTRA:          -8.224
REMARK INTER:                  -6.563
REMARK INTRA:                  -1.661
REMARK UNBOUND:                -0.993
REMARK SMILES CCCCCCCCCCCCCC(=O)[O-]
REMARK SMILES IDX 8 1 9 2 10 3 11 4 12 5 13 6 14 7 15 8 16 9 7 10 6 11 5 12
REMARK SMILES IDX 4 13 3 14 2 15 1 16
REMARK H PARENT
REMARK Flexibility Score: inf
ROOT
ATOM      1  C   UNL     1       7.935 -17.229  31.472  1.00  0.00     0.000 C 
ENDROOT
BRANCH   1   2
ATOM      2  C   UNL     1       9.468 -17.315  31.525  1.00  0.00     0.000 C 
BRANCH   2   3
ATOM      3  C   UNL     1       9.971 -18.673  32.041  1.00  0.00     0.000 C 
BRANCH   3   4
ATOM      4  C   UNL     1      10.965 -19.370  31.086  1.00  0.00     0.000 C 
BRANCH   4   5
ATOM      5  C   UNL     1      10.438 -20.727  30.594  1.00  0.00     0.006 C 
BRANCH   5   6
ATOM      6  C   UNL     1       9.193 -20.549  29.720  1.00  0.00     0.053 C 
BRANCH   6   7
ATOM      7  C   UNL     1       9.579 -20.127  28.337  1.00  0.00     0.041 C 
ATOM      8  O   UNL     1      10.132 -20.945  27.557  1.00  0.00    -0.550 OA
ATOM      9  O   UNL     1       9.374 -18.816  27.928  1.00  0.00    -0.550 OA
ENDBRANCH   6   7
ENDBRANCH   5   6
ENDBRANCH   4   5
ENDBRANCH   3   4
ENDBRANCH   2   3
ENDBRANCH   1   2
BRANCH   1  10
ATOM     10  C   UNL     1       7.239 -18.337  32.285  1.00  0.00     0.000 C 
BRANCH  10  11
ATOM     11  C   UNL     1       6.428 -17.856  33.503  1.00  0.00    -0.000 C 
BRANCH  11  12
ATOM     12  C   UNL     1       7.098 -16.690  34.249  1.00  0.00    -0.000 C 
BRANCH  12  13
ATOM     13  C   UNL     1       7.946 -17.155  35.449  1.00  0.00    -0.000 C 
BRANCH  13  14
ATOM     14  C   UNL     1       9.465 -16.926  35.314  1.00  0.00    -0.000 C 
BRANCH  14  15
ATOM     15  C   UNL     1       9.900 -15.449  35.284  1.00  0.00    -0.003 C 
ATOM     16  C   UNL     1      10.852 -15.133  34.132  1.00  0.00     0.004 C 
ENDBRANCH  14  15
ENDBRANCH  13  14
ENDBRANCH  12  13
ENDBRANCH  11  12
ENDBRANCH  10  11
ENDBRANCH   1  10
TORSDOF 12
ENDMDL
MODEL 6
REMARK VINA RESULT:    -4.224      1.217      3.053
REMARK INTER + INTRA:          -8.181
REMARK INTER:                  -6.266
REMARK INTRA:                  -1.915
REMARK UNBOUND:                -0.993
REMARK SMILES CCCCCCCCCCCCCC(=O)[O-]
REMARK SMILES IDX 8 1 9 2 10 3 11 4 12 5 13 6 14 7 15 8 16 9 7 10 6 11 5 12
REMARK SMILES IDX 4 13 3 14 2 15 1 16
REMARK H PARENT
REMARK Flexibility Score: inf
ROOT
ATOM      1  C   UNL     1       7.062 -17.246  31.784  1.00  0.00     0.000 C 
ENDROOT
BRANCH   1   2
ATOM      2  C   UNL     1       7.367 -17.780  33.192  1.00  0.00     0.000 C 
BRANCH   2   3
ATOM      3  C   UNL     1       8.051 -16.736  34.090  1.00  0.00     0.000 C 
BRANCH   3   4
ATOM      4  C   UNL     1       9.115 -17.334  35.036  1.00  0.00     0.000 C 
BRANCH   4   5
ATOM      5  C   UNL     1       9.962 -16.246  35.714  1.00  0.00     0.006 C 
BRANCH   5   6
ATOM      6  C   UNL     1       9.686 -14.871  35.097  1.00  0.00     0.053 C 
BRANCH   6   7
ATOM      7  C   UNL     1      10.942 -14.060  35.040  1.00  0.00     0.041 C 
ATOM      8  O   UNL     1      11.038 -12.995  35.703  1.00  0.00    -0.550 OA
ATOM      9  O   UNL     1      11.988 -14.456  34.216  1.00  0.00    -0.550 OA
ENDBRANCH   6   7
ENDBRANCH   5   6
ENDBRANCH   4   5
ENDBRANCH   3   4
ENDBRANCH   2   3
ENDBRANCH   1   2
BRANCH   1  10
ATOM     10  C   UNL     1       7.432 -18.239  30.667  1.00  0.00     0.000 C 
BRANCH  10  11
ATOM     11  C   UNL     1       7.951 -19.609  31.143  1.00  0.00    -0.000 C 
BRANCH  11  12
ATOM     12  C   UNL     1       9.366 -19.927  30.632  1.00  0.00    -0.000 C 
BRANCH  12  13
ATOM     13  C   UNL     1      10.473 -19.355  31.538  1.00  0.00    -0.000 C 
BRANCH  13  14
ATOM     14  C   UNL     1      11.146 -18.065  31.027  1.00  0.00    -0.000 C 
BRANCH  14  15
ATOM     15  C   UNL     1      10.796 -16.792  31.818  1.00  0.00    -0.003 C 
ATOM     16  C   UNL     1      10.316 -15.649  30.924  1.00  0.00     0.004 C 
ENDBRANCH  14  15
ENDBRANCH  13  14
ENDBRANCH  12  13
ENDBRANCH  11  12
ENDBRANCH  10  11
ENDBRANCH   1  10
TORSDOF 12
ENDMDL
MODEL 7
REMARK VINA RESULT:    -4.211      3.423      6.913
REMARK INTER + INTRA:          -8.159
REMARK INTER:                  -6.679
REMARK INTRA:                  -1.480
REMARK UNBOUND:                -0.993
REMARK SMILES CCCCCCCCCCCCCC(=O)[O-]
REMARK SMILES IDX 8 1 9 2 10 3 11 4 12 5 13 6 14 7 15 8 16 9 7 10 6 11 5 12
REMARK SMILES IDX 4 13 3 14 2 15 1 16
REMARK H PARENT
REMARK Flexibility Score: inf
ROOT
ATOM      1  C   UNL     1      10.373 -17.353  31.755  1.00  0.00     0.000 C 
ENDROOT
BRANCH   1   2
ATOM      2  C   UNL     1      11.128 -18.351  30.864  1.00  0.00     0.000 C 
BRANCH   2   3
ATOM      3  C   UNL     1      10.771 -19.815  31.173  1.00  0.00     0.000 C 
BRANCH   3   4
ATOM      4  C   UNL     1      10.038 -20.531  30.018  1.00  0.00     0.000 C 
BRANCH   4   5
ATOM      5  C   UNL     1       8.515 -20.538  30.216  1.00  0.00     0.006 C 
BRANCH   5   6
ATOM      6  C   UNL     1       7.870 -19.312  29.562  1.00  0.00     0.053 C 
BRANCH   6   7
ATOM      7  C   UNL     1       7.984 -19.392  28.073  1.00  0.00     0.041 C 
ATOM      8  O   UNL     1       7.572 -20.411  27.460  1.00  0.00    -0.550 OA
ATOM      9  O   UNL     1       8.591 -18.361  27.366  1.00  0.00    -0.550 OA
ENDBRANCH   6   7
ENDBRANCH   5   6
ENDBRANCH   4   5
ENDBRANCH   3   4
ENDBRANCH   2   3
ENDBRANCH   1   2
BRANCH   1  10
ATOM     10  C   UNL     1       9.478 -18.037  32.806  1.00  0.00     0.000 C 
BRANCH  10  11
ATOM     11  C   UNL     1       8.084 -17.413  32.997  1.00  0.00    -0.000 C 
BRANCH  11  12
ATOM     12  C   UNL     1       7.925 -16.697  34.349  1.00  0.00    -0.000 C 
BRANCH  12  13
ATOM     13  C   UNL     1       8.959 -17.157  35.394  1.00  0.00    -0.000 C 
BRANCH  13  14
ATOM     14  C   UNL     1      10.031 -16.113  35.768  1.00  0.00    -0.000 C 
BRANCH  14  15
ATOM     15  C   UNL     1      10.043 -14.850  34.888  1.00  0.00    -0.003 C 
ATOM     16  C   UNL     1      11.342 -14.687  34.099  1.00  0.00     0.004 C 
ENDBRANCH  14  15
ENDBRANCH  13  14
ENDBRANCH  12  13
ENDBRANCH  11  12
ENDBRANCH  10  11
ENDBRANCH   1  10
TORSDOF 12
ENDMDL
MODEL 8
REMARK VINA RESULT:    -4.207      1.475      2.532
REMARK INTER + INTRA:          -8.152
REMARK INTER:                  -6.958
REMARK INTRA:                  -1.194
REMARK UNBOUND:                -0.993
REMARK SMILES CCCCCCCCCCCCCC(=O)[O-]
REMARK SMILES IDX 8 1 9 2 10 3 11 4 12 5 13 6 14 7 15 8 16 9 7 10 6 11 5 12
REMARK SMILES IDX 4 13 3 14 2 15 1 16
REMARK H PARENT
REMARK Flexibility Score: inf
ROOT
ATOM      1  C   UNL     1       9.219 -18.960  31.822  1.00  0.00     0.000 C 
ENDROOT
BRANCH   1   2
ATOM      2  C   UNL     1       9.369 -17.801  32.820  1.00  0.00     0.000 C 
BRANCH   2   3
ATOM      3  C   UNL     1       8.032 -17.384  33.454  1.00  0.00     0.000 C 
BRANCH   3   4
ATOM      4  C   UNL     1       8.117 -17.139  34.976  1.00  0.00     0.000 C 
BRANCH   4   5
ATOM      5  C   UNL     1       9.549 -16.814  35.429  1.00  0.00     0.006 C 
BRANCH   5   6
ATOM      6  C   UNL     1       9.655 -15.366  35.917  1.00  0.00     0.053 C 
BRANCH   6   7
ATOM      7  C   UNL     1      10.700 -14.627  35.142  1.00  0.00     0.041 C 
ATOM      8  O   UNL     1      10.760 -14.743  33.891  1.00  0.00    -0.550 OA
ATOM      9  O   UNL     1      11.638 -13.848  35.807  1.00  0.00    -0.550 OA
ENDBRANCH   6   7
ENDBRANCH   5   6
ENDBRANCH   4   5
ENDBRANCH   3   4
ENDBRANCH   2   3
ENDBRANCH   1   2
BRANCH   1  10
ATOM     10  C   UNL     1      10.568 -19.489  31.303  1.00  0.00     0.000 C 
BRANCH  10  11
ATOM     11  C   UNL     1      10.497 -20.783  30.470  1.00  0.00    -0.000 C 
BRANCH  11  12
ATOM     12  C   UNL     1       9.294 -20.816  29.512  1.00  0.00    -0.000 C 
BRANCH  12  13
ATOM     13  C   UNL     1       9.582 -20.129  28.165  1.00  0.00    -0.000 C 
BRANCH  13  14
ATOM     14  C   UNL     1       8.962 -18.728  27.991  1.00  0.00    -0.000 C 
BRANCH  14  15
ATOM     15  C   UNL     1       9.979 -17.581  27.840  1.00  0.00    -0.003 C 
ATOM     16  C   UNL     1      10.029 -16.666  29.064  1.00  0.00     0.004 C 
ENDBRANCH  14  15
ENDBRANCH  13  14
ENDBRANCH  12  13
ENDBRANCH  11  12
ENDBRANCH  10  11
ENDBRANCH   1  10
TORSDOF 12
ENDMDL
MODEL 9
REMARK VINA RESULT:    -4.204      1.088      1.934
REMARK INTER + INTRA:          -8.146
REMARK INTER:                  -6.619
REMARK INTRA:                  -1.528
REMARK UNBOUND:                -0.993
REMARK SMILES CCCCCCCCCCCCCC(=O)[O-]
REMARK SMILES IDX 8 1 9 2 10 3 11 4 12 5 13 6 14 7 15 8 16 9 7 10 6 11 5 12
REMARK SMILES IDX 4 13 3 14 2 15 1 16
REMARK H PARENT
REMARK Flexibility Score: inf
ROOT
ATOM      1  C   UNL     1       9.748 -16.131  31.925  1.00  0.00     0.000 C 
ENDROOT
BRANCH   1   2
ATOM      2  C   UNL     1       8.585 -16.650  32.785  1.00  0.00     0.000 C 
BRANCH   2   3
ATOM      3  C   UNL     1       9.060 -17.434  34.019  1.00  0.00     0.000 C 
BRANCH   3   4
ATOM      4  C   UNL     1       8.342 -17.029  35.325  1.00  0.00     0.000 C 
BRANCH   4   5
ATOM      5  C   UNL     1       8.771 -15.636  35.812  1.00  0.00     0.006 C 
BRANCH   5   6
ATOM      6  C   UNL     1      10.297 -15.531  35.901  1.00  0.00     0.053 C 
BRANCH   6   7
ATOM      7  C   UNL     1      10.765 -14.222  35.348  1.00  0.00     0.041 C 
ATOM      8  O   UNL     1      10.141 -13.675  34.402  1.00  0.00    -0.550 OA
ATOM      9  O   UNL     1      11.919 -13.631  35.846  1.00  0.00    -0.550 OA
ENDBRANCH   6   7
ENDBRANCH   5   6
ENDBRANCH   4   5
ENDBRANCH   3   4
ENDBRANCH   2   3
ENDBRANCH   1   2
BRANCH   1  10
ATOM     10  C   UNL     1       9.568 -16.426  30.424  1.00  0.00     0.000 C 
BRANCH  10  11
ATOM     11  C   UNL     1      10.483 -17.524  29.849  1.00  0.00    -0.000 C 
BRANCH  11  12
ATOM     12  C   UNL     1      11.248 -18.298  30.936  1.00  0.00    -0.000 C 
BRANCH  12  13
ATOM     13  C   UNL     1      10.607 -19.659  31.266  1.00  0.00    -0.000 C 
BRANCH  13  14
ATOM     14  C   UNL     1      10.097 -20.462  30.052  1.00  0.00    -0.000 C 
BRANCH  14  15
ATOM     15  C   UNL     1       8.585 -20.750  30.052  1.00  0.00    -0.003 C 
ATOM     16  C   UNL     1       7.789 -19.753  30.894  1.00  0.00     0.004 C 
ENDBRANCH  14  15
ENDBRANCH  13  14
ENDBRANCH  12  13
ENDBRANCH  11  12
ENDBRANCH  10  11
ENDBRANCH   1  10
TORSDOF 12
ENDMDL
