MODEL 1
REMARK VINA RESULT:    -4.482      0.000      0.000
REMARK INTER + INTRA:          -8.760
REMARK INTER:                  -7.626
REMARK INTRA:                  -1.134
REMARK UNBOUND:                -1.134
REMARK SMILES CCCCCCCCCCCCCC(=O)[O-]
REMARK SMILES IDX 8 1 9 2 10 3 11 4 12 5 13 6 14 7 15 8 16 9 7 10 6 11 5 12
REMARK SMILES IDX 4 13 3 14 2 15 1 16
REMARK H PARENT
REMARK Flexibility Score: inf
ROOT
ATOM      1  C   UNL     1      36.896 -11.292  28.423  1.00  0.00     0.000 C 
ENDROOT
BRANCH   1   2
ATOM      2  C   UNL     1      37.849 -12.387  28.936  1.00  0.00     0.000 C 
BRANCH   2   3
ATOM      3  C   UNL     1      39.123 -12.594  28.096  1.00  0.00     0.000 C 
BRANCH   3   4
ATOM      4  C   UNL     1      40.359 -11.909  28.704  1.00  0.00     0.000 C 
BRANCH   4   5
ATOM      5  C   UNL     1      41.660 -12.676  28.414  1.00  0.00     0.006 C 
BRANCH   5   6
ATOM      6  C   UNL     1      41.898 -12.893  26.915  1.00  0.00     0.053 C 
BRANCH   6   7
ATOM      7  C   UNL     1      43.318 -13.288  26.664  1.00  0.00     0.041 C 
ATOM      8  O   UNL     1      43.762 -13.345  25.488  1.00  0.00    -0.550 OA
ATOM      9  O   UNL     1      44.167 -13.546  27.733  1.00  0.00    -0.550 OA
ENDBRANCH   6   7
ENDBRANCH   5   6
ENDBRANCH   4   5
ENDBRANCH   3   4
ENDBRANCH   2   3
ENDBRANCH   1   2
BRANCH   1  10
ATOM     10  C   UNL     1      36.746 -11.297  26.892  1.00  0.00     0.000 C 
BRANCH  10  11
ATOM     11  C   UNL     1      36.366  -9.915  26.333  1.00  0.00    -0.000 C 
BRANCH  11  12
ATOM     12  C   UNL     1      37.145  -9.563  25.054  1.00  0.00    -0.000 C 
BRANCH  12  13
ATOM     13  C   UNL     1      38.371  -8.674  25.329  1.00  0.00    -0.000 C 
BRANCH  13  14
ATOM     14  C   UNL     1      39.421  -9.279  26.283  1.00  0.00    -0.000 C 
BRANCH  14  15
ATOM     15  C   UNL     1      40.637  -9.919  25.590  1.00  0.00    -0.003 C 
ATOM     16  C   UNL     1      40.909  -9.333  24.205  1.00  0.00     0.004 C 
ENDBRANCH  14  15
ENDBRANCH  13  14
ENDBRANCH  12  13
ENDBRANCH  11  12
ENDBRANCH  10  11
ENDBRANCH   1  10
TORSDOF 12
ENDMDL
MODEL 2
REMARK VINA RESULT:    -4.430      1.339      2.509
REMARK INTER + INTRA:          -8.672
REMARK INTER:                  -7.119
REMARK INTRA:                  -1.552
REMARK UNBOUND:                -1.134
REMARK SMILES CCCCCCCCCCCCCC(=O)[O-]
REMARK SMILES IDX 8 1 9 2 10 3 11 4 12 5 13 6 14 7 15 8 16 9 7 10 6 11 5 12
REMARK SMILES IDX 4 13 3 14 2 15 1 16
REMARK H PARENT
REMARK Flexibility Score: inf
ROOT
ATOM      1  C   UNL     1      38.979 -13.585  29.844  1.00  0.00     0.000 C 
ENDROOT
BRANCH   1   2
ATOM      2  C   UNL     1      40.119 -12.683  30.351  1.00  0.00     0.000 C 
BRANCH   2   3
ATOM      3  C   UNL     1      41.397 -12.695  29.491  1.00  0.00     0.000 C 
BRANCH   3   4
ATOM      4  C   UNL     1      41.396 -13.811  28.432  1.00  0.00     0.000 C 
BRANCH   4   5
ATOM      5  C   UNL     1      41.425 -13.261  26.997  1.00  0.00     0.006 C 
BRANCH   5   6
ATOM      6  C   UNL     1      42.689 -12.445  26.701  1.00  0.00     0.053 C 
BRANCH   6   7
ATOM      7  C   UNL     1      43.821 -13.351  26.338  1.00  0.00     0.041 C 
ATOM      8  O   UNL     1      43.953 -13.760  25.154  1.00  0.00    -0.550 OA
ATOM      9  O   UNL     1      44.762 -13.708  27.296  1.00  0.00    -0.550 OA
ENDBRANCH   6   7
ENDBRANCH   5   6
ENDBRANCH   4   5
ENDBRANCH   3   4
ENDBRANCH   2   3
ENDBRANCH   1   2
BRANCH   1  10
ATOM     10  C   UNL     1      37.583 -13.023  30.165  1.00  0.00     0.000 C 
BRANCH  10  11
ATOM     11  C   UNL     1      37.400 -11.581  29.661  1.00  0.00    -0.000 C 
BRANCH  11  12
ATOM     12  C   UNL     1      36.721 -11.520  28.282  1.00  0.00    -0.000 C 
BRANCH  12  13
ATOM     13  C   UNL     1      37.726 -11.345  27.130  1.00  0.00    -0.000 C 
BRANCH  13  14
ATOM     14  C   UNL     1      39.055 -10.664  27.516  1.00  0.00    -0.000 C 
BRANCH  14  15
ATOM     15  C   UNL     1      39.797  -9.981  26.353  1.00  0.00    -0.003 C 
ATOM     16  C   UNL     1      38.942  -8.940  25.632  1.00  0.00     0.004 C 
ENDBRANCH  14  15
ENDBRANCH  13  14
ENDBRANCH  12  13
ENDBRANCH  11  12
ENDBRANCH  10  11
ENDBRANCH   1  10
TORSDOF 12
ENDMDL
MODEL 3
REMARK VINA RESULT:    -4.393      3.077      5.480
REMARK INTER + INTRA:          -8.609
REMARK INTER:                  -7.094
REMARK INTRA:                  -1.515
REMARK UNBOUND:                -1.134
REMARK SMILES CCCCCCCCCCCCCC(=O)[O-]
REMARK SMILES IDX 8 1 9 2 10 3 11 4 12 5 13 6 14 7 15 8 16 9 7 10 6 11 5 12
REMARK SMILES IDX 4 13 3 14 2 15 1 16
REMARK H PARENT
REMARK Flexibility Score: inf
ROOT
ATOM      1  C   UNL     1      37.326 -11.495  28.101  1.00  0.00     0.000 C 
ENDROOT
BRANCH   1   2
ATOM      2  C   UNL     1      38.713 -11.910  27.577  1.00  0.00     0.000 C 
BRANCH   2   3
ATOM      3  C   UNL     1      39.766 -10.787  27.545  1.00  0.00     0.000 C 
BRANCH   3   4
ATOM      4  C   UNL     1      40.538 -10.727  26.216  1.00  0.00     0.000 C 
BRANCH   4   5
ATOM      5  C   UNL     1      40.274  -9.428  25.438  1.00  0.00     0.006 C 
BRANCH   5   6
ATOM      6  C   UNL     1      38.978  -8.732  25.873  1.00  0.00     0.053 C 
BRANCH   6   7
ATOM      7  C   UNL     1      37.882  -9.015  24.896  1.00  0.00     0.041 C 
ATOM      8  O   UNL     1      38.105  -8.959  23.658  1.00  0.00    -0.550 OA
ATOM      9  O   UNL     1      36.624  -9.390  25.351  1.00  0.00    -0.550 OA
ENDBRANCH   6   7
ENDBRANCH   5   6
ENDBRANCH   4   5
ENDBRANCH   3   4
ENDBRANCH   2   3
ENDBRANCH   1   2
BRANCH   1  10
ATOM     10  C   UNL     1      37.074 -11.943  29.551  1.00  0.00     0.000 C 
BRANCH  10  11
ATOM     11  C   UNL     1      38.150 -12.917  30.061  1.00  0.00    -0.000 C 
BRANCH  11  12
ATOM     12  C   UNL     1      39.041 -12.293  31.149  1.00  0.00    -0.000 C 
BRANCH  12  13
ATOM     13  C   UNL     1      40.388 -13.022  31.307  1.00  0.00    -0.000 C 
BRANCH  13  14
ATOM     14  C   UNL     1      41.460 -12.657  30.260  1.00  0.00    -0.000 C 
BRANCH  14  15
ATOM     15  C   UNL     1      41.642 -13.686  29.130  1.00  0.00    -0.003 C 
ATOM     16  C   UNL     1      42.592 -13.204  28.034  1.00  0.00     0.004 C 
ENDBRANCH  14  15
ENDBRANCH  13  14
ENDBRANCH  12  13
ENDBRANCH  11  12
ENDBRANCH  10  11
ENDBRANCH   1  10
TORSDOF 12
ENDMDL
MODEL 4
REMARK VINA RESULT:    -4.389      2.760      5.199
REMARK INTER + INTRA:          -8.602
REMARK INTER:                  -7.537
REMARK INTRA:                  -1.066
REMARK UNBOUND:                -1.134
REMARK SMILES CCCCCCCCCCCCCC(=O)[O-]
REMARK SMILES IDX 8 1 9 2 10 3 11 4 12 5 13 6 14 7 15 8 16 9 7 10 6 11 5 12
REMARK SMILES IDX 4 13 3 14 2 15 1 16
REMARK H PARENT
REMARK Flexibility Score: inf
ROOT
ATOM      1  C   UNL     1      38.114  -8.831  24.799  1.00  0.00     0.000 C 
ENDROOT
BRANCH   1   2
ATOM      2  C   UNL     1      36.779  -9.583  24.949  1.00  0.00     0.000 C 
BRANCH   2   3
ATOM      3  C   UNL     1      36.314  -9.812  26.399  1.00  0.00     0.000 C 
BRANCH   3   4
ATOM      4  C   UNL     1      36.375 -11.290  26.821  1.00  0.00     0.000 C 
BRANCH   4   5
ATOM      5  C   UNL     1      37.392 -11.541  27.946  1.00  0.00     0.006 C 
BRANCH   5   6
ATOM      6  C   UNL     1      36.750 -11.525  29.339  1.00  0.00     0.053 C 
BRANCH   6   7
ATOM      7  C   UNL     1      37.477 -12.454  30.258  1.00  0.00     0.041 C 
ATOM      8  O   UNL     1      37.619 -13.667  29.951  1.00  0.00    -0.550 OA
ATOM      9  O   UNL     1      38.040 -11.971  31.432  1.00  0.00    -0.550 OA
ENDBRANCH   6   7
ENDBRANCH   5   6
ENDBRANCH   4   5
ENDBRANCH   3   4
ENDBRANCH   2   3
ENDBRANCH   1   2
BRANCH   1  10
ATOM     10  C   UNL     1      39.153  -9.238  25.858  1.00  0.00     0.000 C 
BRANCH  10  11
ATOM     11  C   UNL     1      40.582  -9.293  25.289  1.00  0.00    -0.000 C 
BRANCH  11  12
ATOM     12  C   UNL     1      41.309 -10.599  25.651  1.00  0.00    -0.000 C 
BRANCH  12  13
ATOM     13  C   UNL     1      40.675 -11.323  26.852  1.00  0.00    -0.000 C 
BRANCH  13  14
ATOM     14  C   UNL     1      41.218 -12.740  27.128  1.00  0.00    -0.000 C 
BRANCH  14  15
ATOM     15  C   UNL     1      41.823 -12.943  28.528  1.00  0.00    -0.003 C 
ATOM     16  C   UNL     1      41.157 -12.075  29.595  1.00  0.00     0.004 C 
ENDBRANCH  14  15
ENDBRANCH  13  14
ENDBRANCH  12  13
ENDBRANCH  11  12
ENDBRANCH  10  11
ENDBRANCH   1  10
TORSDOF 12
ENDMDL
MODEL 5
REMARK VINA RESULT:    -4.307     12.790     15.848
REMARK INTER + INTRA:          -8.462
REMARK INTER:                  -7.821
REMARK INTRA:                  -0.641
REMARK UNBOUND:                -1.134
REMARK SMILES CCCCCCCCCCCCCC(=O)[O-]
REMARK SMILES IDX 8 1 9 2 10 3 11 4 12 5 13 6 14 7 15 8 16 9 7 10 6 11 5 12
REMARK SMILES IDX 4 13 3 14 2 15 1 16
REMARK H PARENT
REMARK Flexibility Score: inf
ROOT
ATOM      1  C   UNL     1      47.132   0.580  21.644  1.00  0.00     0.000 C 
ENDROOT
BRANCH   1   2
ATOM      2  C   UNL     1      46.096   1.384  22.451  1.00  0.00     0.000 C 
BRANCH   2   3
ATOM      3  C   UNL     1      44.628   1.152  22.050  1.00  0.00     0.000 C 
BRANCH   3   4
ATOM      4  C   UNL     1      44.127  -0.260  22.399  1.00  0.00     0.000 C 
BRANCH   4   5
ATOM      5  C   UNL     1      42.647  -0.467  22.041  1.00  0.00     0.006 C 
BRANCH   5   6
ATOM      6  C   UNL     1      42.214   0.352  20.818  1.00  0.00     0.053 C 
BRANCH   6   7
ATOM      7  C   UNL     1      41.497  -0.518  19.836  1.00  0.00     0.041 C 
ATOM      8  O   UNL     1      41.634  -0.326  18.599  1.00  0.00    -0.550 OA
ATOM      9  O   UNL     1      40.712  -1.573  20.285  1.00  0.00    -0.550 OA
ENDBRANCH   6   7
ENDBRANCH   5   6
ENDBRANCH   4   5
ENDBRANCH   3   4
ENDBRANCH   2   3
ENDBRANCH   1   2
BRANCH   1  10
ATOM     10  C   UNL     1      47.836   1.422  20.565  1.00  0.00     0.000 C 
BRANCH  10  11
ATOM     11  C   UNL     1      49.081   0.723  19.994  1.00  0.00    -0.000 C 
BRANCH  11  12
ATOM     12  C   UNL     1      49.918   0.028  21.082  1.00  0.00    -0.000 C 
BRANCH  12  13
ATOM     13  C   UNL     1      50.815  -1.090  20.521  1.00  0.00    -0.000 C 
BRANCH  13  14
ATOM     14  C   UNL     1      52.301  -0.715  20.349  1.00  0.00    -0.000 C 
BRANCH  14  15
ATOM     15  C   UNL     1      52.710  -0.317  18.920  1.00  0.00    -0.003 C 
ATOM     16  C   UNL     1      51.851  -0.986  17.848  1.00  0.00     0.004 C 
ENDBRANCH  14  15
ENDBRANCH  13  14
ENDBRANCH  12  13
ENDBRANCH  11  12
ENDBRANCH  10  11
ENDBRANCH   1  10
TORSDOF 12
ENDMDL
MODEL 6
REMARK VINA RESULT:    -4.227     13.201     15.319
REMARK INTER + INTRA:          -8.326
REMARK INTER:                  -7.724
REMARK INTRA:                  -0.601
REMARK UNBOUND:                -1.134
REMARK SMILES CCCCCCCCCCCCCC(=O)[O-]
REMARK SMILES IDX 8 1 9 2 10 3 11 4 12 5 13 6 14 7 15 8 16 9 7 10 6 11 5 12
REMARK SMILES IDX 4 13 3 14 2 15 1 16
REMARK H PARENT
REMARK Flexibility Score: inf
ROOT
ATOM      1  C   UNL     1      45.060   0.278  23.822  1.00  0.00     0.000 C 
ENDROOT
BRANCH   1   2
ATOM      2  C   UNL     1      44.118  -0.541  22.920  1.00  0.00     0.000 C 
BRANCH   2   3
ATOM      3  C   UNL     1      42.817   0.173  22.510  1.00  0.00     0.000 C 
BRANCH   3   4
ATOM      4  C   UNL     1      42.713   0.405  20.993  1.00  0.00     0.000 C 
BRANCH   4   5
ATOM      5  C   UNL     1      41.467  -0.255  20.379  1.00  0.00     0.006 C 
BRANCH   5   6
ATOM      6  C   UNL     1      41.646  -0.590  18.893  1.00  0.00     0.053 C 
BRANCH   6   7
ATOM      7  C   UNL     1      41.801   0.662  18.092  1.00  0.00     0.041 C 
ATOM      8  O   UNL     1      40.996   1.618  18.246  1.00  0.00    -0.550 OA
ATOM      9  O   UNL     1      42.864   0.795  17.207  1.00  0.00    -0.550 OA
ENDBRANCH   6   7
ENDBRANCH   5   6
ENDBRANCH   4   5
ENDBRANCH   3   4
ENDBRANCH   2   3
ENDBRANCH   1   2
BRANCH   1  10
ATOM     10  C   UNL     1      45.853   1.345  23.047  1.00  0.00     0.000 C 
BRANCH  10  11
ATOM     11  C   UNL     1      46.334   0.840  21.677  1.00  0.00    -0.000 C 
BRANCH  11  12
ATOM     12  C   UNL     1      47.847   1.036  21.475  1.00  0.00    -0.000 C 
BRANCH  12  13
ATOM     13  C   UNL     1      48.540  -0.218  20.912  1.00  0.00    -0.000 C 
BRANCH  13  14
ATOM     14  C   UNL     1      50.077  -0.234  21.046  1.00  0.00    -0.000 C 
BRANCH  14  15
ATOM     15  C   UNL     1      50.819  -0.978  19.923  1.00  0.00    -0.003 C 
ATOM     16  C   UNL     1      52.340  -0.908  20.066  1.00  0.00     0.004 C 
ENDBRANCH  14  15
ENDBRANCH  13  14
ENDBRANCH  12  13
ENDBRANCH  11  12
ENDBRANCH  10  11
ENDBRANCH   1  10
TORSDOF 12
ENDMDL
MODEL 7
REMARK VINA RESULT:    -4.188     12.915     15.043
REMARK INTER + INTRA:          -8.260
REMARK INTER:                  -7.574
REMARK INTRA:                  -0.686
REMARK UNBOUND:                -1.134
REMARK SMILES CCCCCCCCCCCCCC(=O)[O-]
REMARK SMILES IDX 8 1 9 2 10 3 11 4 12 5 13 6 14 7 15 8 16 9 7 10 6 11 5 12
REMARK SMILES IDX 4 13 3 14 2 15 1 16
REMARK H PARENT
REMARK Flexibility Score: inf
ROOT
ATOM      1  C   UNL     1      46.408   1.819  22.290  1.00  0.00     0.000 C 
ENDROOT
BRANCH   1   2
ATOM      2  C   UNL     1      46.975   0.435  21.922  1.00  0.00     0.000 C 
BRANCH   2   3
ATOM      3  C   UNL     1      48.223   0.456  21.022  1.00  0.00     0.000 C 
BRANCH   3   4
ATOM      4  C   UNL     1      49.434  -0.248  21.659  1.00  0.00     0.000 C 
BRANCH   4   5
ATOM      5  C   UNL     1      50.699  -0.146  20.792  1.00  0.00     0.006 C 
BRANCH   5   6
ATOM      6  C   UNL     1      50.756  -1.220  19.699  1.00  0.00     0.053 C 
BRANCH   6   7
ATOM      7  C   UNL     1      51.847  -0.912  18.723  1.00  0.00     0.041 C 
ATOM      8  O   UNL     1      51.814  -1.399  17.562  1.00  0.00    -0.550 OA
ATOM      9  O   UNL     1      52.875  -0.049  19.079  1.00  0.00    -0.550 OA
ENDBRANCH   6   7
ENDBRANCH   5   6
ENDBRANCH   4   5
ENDBRANCH   3   4
ENDBRANCH   2   3
ENDBRANCH   1   2
BRANCH   1  10
ATOM     10  C   UNL     1      45.263   1.744  23.316  1.00  0.00     0.000 C 
BRANCH  10  11
ATOM     11  C   UNL     1      45.328   0.471  24.176  1.00  0.00    -0.000 C 
BRANCH  11  12
ATOM     12  C   UNL     1      43.933  -0.080  24.518  1.00  0.00    -0.000 C 
BRANCH  12  13
ATOM     13  C   UNL     1      42.872   0.288  23.465  1.00  0.00    -0.000 C 
BRANCH  13  14
ATOM     14  C   UNL     1      42.786  -0.667  22.257  1.00  0.00    -0.000 C 
BRANCH  14  15
ATOM     15  C   UNL     1      42.200  -0.046  20.977  1.00  0.00    -0.003 C 
ATOM     16  C   UNL     1      41.418  -1.052  20.132  1.00  0.00     0.004 C 
ENDBRANCH  14  15
ENDBRANCH  13  14
ENDBRANCH  12  13
ENDBRANCH  11  12
ENDBRANCH  10  11
ENDBRANCH   1  10
TORSDOF 12
ENDMDL
MODEL 8
REMARK VINA RESULT:    -4.153     12.084     14.518
REMARK INTER + INTRA:          -8.201
REMARK INTER:                  -6.597
REMARK INTRA:                  -1.604
REMARK UNBOUND:                -1.134
REMARK SMILES CCCCCCCCCCCCCC(=O)[O-]
REMARK SMILES IDX 8 1 9 2 10 3 11 4 12 5 13 6 14 7 15 8 16 9 7 10 6 11 5 12
REMARK SMILES IDX 4 13 3 14 2 15 1 16
REMARK H PARENT
REMARK Flexibility Score: inf
ROOT
ATOM      1  C   UNL     1      41.338   1.025  18.659  1.00  0.00     0.000 C 
ENDROOT
BRANCH   1   2
ATOM      2  C   UNL     1      41.501  -0.505  18.704  1.00  0.00     0.000 C 
BRANCH   2   3
ATOM      3  C   UNL     1      41.531  -1.121  20.115  1.00  0.00     0.000 C 
BRANCH   3   4
ATOM      4  C   UNL     1      42.021  -0.134  21.189  1.00  0.00     0.000 C 
BRANCH   4   5
ATOM      5  C   UNL     1      43.333  -0.585  21.851  1.00  0.00     0.006 C 
BRANCH   5   6
ATOM      6  C   UNL     1      43.700   0.261  23.076  1.00  0.00     0.053 C 
BRANCH   6   7
ATOM      7  C   UNL     1      44.187  -0.614  24.187  1.00  0.00     0.041 C 
ATOM      8  O   UNL     1      45.315  -0.410  24.707  1.00  0.00    -0.550 OA
ATOM      9  O   UNL     1      43.374  -1.627  24.681  1.00  0.00    -0.550 OA
ENDBRANCH   6   7
ENDBRANCH   5   6
ENDBRANCH   4   5
ENDBRANCH   3   4
ENDBRANCH   2   3
ENDBRANCH   1   2
BRANCH   1  10
ATOM     10  C   UNL     1      41.958   1.656  17.400  1.00  0.00     0.000 C 
BRANCH  10  11
ATOM     11  C   UNL     1      43.494   1.590  17.404  1.00  0.00    -0.000 C 
BRANCH  11  12
ATOM     12  C   UNL     1      44.132   2.754  18.182  1.00  0.00    -0.000 C 
BRANCH  12  13
ATOM     13  C   UNL     1      44.296   2.449  19.682  1.00  0.00    -0.000 C 
BRANCH  13  14
ATOM     14  C   UNL     1      43.803   3.557  20.635  1.00  0.00    -0.000 C 
BRANCH  14  15
ATOM     15  C   UNL     1      42.302   3.507  20.968  1.00  0.00    -0.003 C 
ATOM     16  C   UNL     1      42.027   3.452  22.471  1.00  0.00     0.004 C 
ENDBRANCH  14  15
ENDBRANCH  13  14
ENDBRANCH  12  13
ENDBRANCH  11  12
ENDBRANCH  10  11
ENDBRANCH   1  10
TORSDOF 12
ENDMDL
MODEL 9
REMARK VINA RESULT:    -4.143     12.538     14.841
REMARK INTER + INTRA:          -8.183
REMARK INTER:                  -6.360
REMARK INTRA:                  -1.823
REMARK UNBOUND:                -1.134
REMARK SMILES CCCCCCCCCCCCCC(=O)[O-]
REMARK SMILES IDX 8 1 9 2 10 3 11 4 12 5 13 6 14 7 15 8 16 9 7 10 6 11 5 12
REMARK SMILES IDX 4 13 3 14 2 15 1 16
REMARK H PARENT
REMARK Flexibility Score: inf
ROOT
ATOM      1  C   UNL     1      45.273   3.154  23.798  1.00  0.00     0.000 C 
ENDROOT
BRANCH   1   2
ATOM      2  C   UNL     1      45.009   3.357  22.294  1.00  0.00     0.000 C 
BRANCH   2   3
ATOM      3  C   UNL     1      45.791   2.418  21.358  1.00  0.00     0.000 C 
BRANCH   3   4
ATOM      4  C   UNL     1      47.065   1.849  22.006  1.00  0.00     0.000 C 
BRANCH   4   5
ATOM      5  C   UNL     1      47.468   0.487  21.419  1.00  0.00     0.006 C 
BRANCH   5   6
ATOM      6  C   UNL     1      48.745   0.561  20.573  1.00  0.00     0.053 C 
BRANCH   6   7
ATOM      7  C   UNL     1      49.828  -0.264  21.190  1.00  0.00     0.041 C 
ATOM      8  O   UNL     1      49.770  -0.578  22.409  1.00  0.00    -0.550 OA
ATOM      9  O   UNL     1      50.879  -0.729  20.410  1.00  0.00    -0.550 OA
ENDBRANCH   6   7
ENDBRANCH   5   6
ENDBRANCH   4   5
ENDBRANCH   3   4
ENDBRANCH   2   3
ENDBRANCH   1   2
BRANCH   1  10
ATOM     10  C   UNL     1      44.021   2.703  24.570  1.00  0.00     0.000 C 
BRANCH  10  11
ATOM     11  C   UNL     1      44.267   1.429  25.396  1.00  0.00    -0.000 C 
BRANCH  11  12
ATOM     12  C   UNL     1      44.952   0.320  24.579  1.00  0.00    -0.000 C 
BRANCH  12  13
ATOM     13  C   UNL     1      43.948  -0.605  23.869  1.00  0.00    -0.000 C 
BRANCH  13  14
ATOM     14  C   UNL     1      43.928  -0.496  22.331  1.00  0.00    -0.000 C 
BRANCH  14  15
ATOM     15  C   UNL     1      42.537  -0.270  21.712  1.00  0.00    -0.003 C 
ATOM     16  C   UNL     1      42.233   1.207  21.457  1.00  0.00     0.004 C 
ENDBRANCH  14  15
ENDBRANCH  13  14
ENDBRANCH  12  13
ENDBRANCH  11  12
ENDBRANCH  10  11
ENDBRANCH   1  10
TORSDOF 12
ENDMDL
