MODEL 1
REMARK VINA RESULT:    -4.973      0.000      0.000
REMARK INTER + INTRA:          -6.141
REMARK INTER:                  -5.846
REMARK INTRA:                  -0.296
REMARK UNBOUND:                -0.296
REMARK SMILES O=c1c(O)c(-c2ccc(O)cc2)oc2cc(O)cc(O)c12
REMARK SMILES IDX 5 1 3 2 2 3 1 4 21 5 19 6 18 7 16 8 15 9 14 10 13 11 6 12
REMARK SMILES IDX 7 13 8 14 9 15 12 16 11 17 10 18 4 20 20 22 17 24
REMARK H PARENT 10 19 4 21 20 23 17 25
REMARK Flexibility Score: inf
ROOT
ATOM      1  C   UNL     1       7.717  -1.497  -8.419  1.00  0.00     0.180 A 
ATOM      2  C   UNL     1       8.351  -0.681  -9.375  1.00  0.00     0.208 A 
ATOM      3  C   UNL     1       7.858   0.615  -9.594  1.00  0.00     0.238 A 
ATOM      4  O   UNL     1       8.411   1.352 -10.455  1.00  0.00    -0.285 OA
ATOM      5  C   UNL     1       6.757   1.078  -8.845  1.00  0.00     0.111 A 
ATOM      6  C   UNL     1       6.202   2.371  -9.002  1.00  0.00     0.134 A 
ATOM      7  C   UNL     1       5.110   2.760  -8.211  1.00  0.00     0.093 A 
ATOM      8  C   UNL     1       4.565   1.882  -7.267  1.00  0.00     0.123 A 
ATOM      9  C   UNL     1       5.109   0.607  -7.109  1.00  0.00     0.094 A 
ATOM     10  C   UNL     1       6.196   0.199  -7.889  1.00  0.00     0.146 A 
ATOM     11  O   UNL     1       6.690  -1.022  -7.721  1.00  0.00    -0.452 OA
ENDROOT
BRANCH   1  12
ATOM     12  C   UNL     1       8.165  -2.882  -8.145  1.00  0.00     0.021 A 
ATOM     13  C   UNL     1       7.718  -3.966  -8.921  1.00  0.00     0.016 A 
ATOM     14  C   UNL     1       8.137  -5.268  -8.628  1.00  0.00     0.047 A 
ATOM     15  C   UNL     1       8.998  -5.503  -7.549  1.00  0.00     0.115 A 
ATOM     16  C   UNL     1       9.012  -3.130  -7.051  1.00  0.00     0.016 A 
ATOM     17  C   UNL     1       9.431  -4.432  -6.761  1.00  0.00     0.047 A 
BRANCH  15  18
ATOM     18  O   UNL     1       9.423  -6.795  -7.247  1.00  0.00    -0.508 OA
ATOM     19  H   UNL     1       9.087  -7.597  -7.767  1.00  0.00     0.293 HD
ENDBRANCH  15  18
ENDBRANCH   1  12
BRANCH   2  20
ATOM     20  O   UNL     1       9.472  -1.145 -10.069  1.00  0.00    -0.502 OA
ATOM     21  H   UNL     1      10.168  -0.520 -10.456  1.00  0.00     0.293 HD
ENDBRANCH   2  20
BRANCH   6  22
ATOM     22  O   UNL     1       6.724   3.268  -9.934  1.00  0.00    -0.507 OA
ATOM     23  H   UNL     1       6.780   4.262  -9.744  1.00  0.00     0.293 HD
ENDBRANCH   6  22
BRANCH   8  24
ATOM     24  O   UNL     1       3.482   2.269  -6.481  1.00  0.00    -0.508 OA
ATOM     25  H   UNL     1       2.636   1.713  -6.433  1.00  0.00     0.293 HD
ENDBRANCH   8  24
TORSDOF 5
ENDMDL
MODEL 2
REMARK VINA RESULT:    -4.807     12.896     14.504
REMARK INTER + INTRA:          -5.946
REMARK INTER:                  -5.789
REMARK INTRA:                  -0.157
REMARK UNBOUND:                -0.296
REMARK SMILES O=c1c(O)c(-c2ccc(O)cc2)oc2cc(O)cc(O)c12
REMARK SMILES IDX 5 1 3 2 2 3 1 4 21 5 19 6 18 7 16 8 15 9 14 10 13 11 6 12
REMARK SMILES IDX 7 13 8 14 9 15 12 16 11 17 10 18 4 20 20 22 17 24
REMARK H PARENT 10 19 4 21 20 23 17 25
REMARK Flexibility Score: inf
ROOT
ATOM      1  C   UNL     1      -6.382  -5.427  -7.512  1.00  0.00     0.180 A 
ATOM      2  C   UNL     1      -5.079  -5.803  -7.891  1.00  0.00     0.208 A 
ATOM      3  C   UNL     1      -4.233  -4.839  -8.460  1.00  0.00     0.238 A 
ATOM      4  O   UNL     1      -3.067  -5.167  -8.813  1.00  0.00    -0.285 OA
ATOM      5  C   UNL     1      -4.694  -3.516  -8.623  1.00  0.00     0.111 A 
ATOM      6  C   UNL     1      -3.903  -2.484  -9.184  1.00  0.00     0.134 A 
ATOM      7  C   UNL     1      -4.431  -1.190  -9.304  1.00  0.00     0.093 A 
ATOM      8  C   UNL     1      -5.733  -0.909  -8.874  1.00  0.00     0.123 A 
ATOM      9  C   UNL     1      -6.515  -1.923  -8.319  1.00  0.00     0.094 A 
ATOM     10  C   UNL     1      -6.008  -3.220  -8.193  1.00  0.00     0.146 A 
ATOM     11  O   UNL     1      -6.777  -4.167  -7.667  1.00  0.00    -0.452 OA
ENDROOT
BRANCH   1  12
ATOM     12  C   UNL     1      -7.340  -6.390  -6.924  1.00  0.00     0.021 A 
ATOM     13  C   UNL     1      -7.816  -7.493  -7.656  1.00  0.00     0.016 A 
ATOM     14  C   UNL     1      -8.739  -8.376  -7.087  1.00  0.00     0.047 A 
ATOM     15  C   UNL     1      -9.206  -8.161  -5.784  1.00  0.00     0.115 A 
ATOM     16  C   UNL     1      -7.830  -6.171  -5.625  1.00  0.00     0.016 A 
ATOM     17  C   UNL     1      -8.752  -7.057  -5.057  1.00  0.00     0.047 A 
BRANCH  15  18
ATOM     18  O   UNL     1     -10.125  -9.035  -5.205  1.00  0.00    -0.508 OA
ATOM     19  H   UNL     1     -10.711  -8.748  -4.430  1.00  0.00     0.293 HD
ENDBRANCH  15  18
ENDBRANCH   1  12
BRANCH   2  20
ATOM     20  O   UNL     1      -4.629  -7.108  -7.673  1.00  0.00    -0.502 OA
ATOM     21  H   UNL     1      -3.804  -7.481  -8.126  1.00  0.00     0.293 HD
ENDBRANCH   2  20
BRANCH   6  22
ATOM     22  O   UNL     1      -2.602  -2.734  -9.622  1.00  0.00    -0.507 OA
ATOM     23  H   UNL     1      -1.808  -2.676  -8.995  1.00  0.00     0.293 HD
ENDBRANCH   6  22
BRANCH   8  24
ATOM     24  O   UNL     1      -6.257   0.376  -8.991  1.00  0.00    -0.508 OA
ATOM     25  H   UNL     1      -6.869   0.631  -9.757  1.00  0.00     0.293 HD
ENDBRANCH   8  24
TORSDOF 5
ENDMDL
MODEL 3
REMARK VINA RESULT:    -4.784      1.830      6.719
REMARK INTER + INTRA:          -5.919
REMARK INTER:                  -5.623
REMARK INTRA:                  -0.296
REMARK UNBOUND:                -0.296
REMARK SMILES O=c1c(O)c(-c2ccc(O)cc2)oc2cc(O)cc(O)c12
REMARK SMILES IDX 5 1 3 2 2 3 1 4 21 5 19 6 18 7 16 8 15 9 14 10 13 11 6 12
REMARK SMILES IDX 7 13 8 14 9 15 12 16 11 17 10 18 4 20 20 22 17 24
REMARK H PARENT 10 19 4 21 20 23 17 25
REMARK Flexibility Score: inf
ROOT
ATOM      1  C   UNL     1       6.693  -1.055  -8.182  1.00  0.00     0.180 A 
ATOM      2  C   UNL     1       8.042  -1.142  -7.788  1.00  0.00     0.208 A 
ATOM      3  C   UNL     1       8.602  -2.408  -7.559  1.00  0.00     0.238 A 
ATOM      4  O   UNL     1       9.807  -2.498  -7.195  1.00  0.00    -0.285 OA
ATOM      5  C   UNL     1       7.814  -3.563  -7.745  1.00  0.00     0.111 A 
ATOM      6  C   UNL     1       8.303  -4.876  -7.539  1.00  0.00     0.134 A 
ATOM      7  C   UNL     1       7.458  -5.974  -7.755  1.00  0.00     0.093 A 
ATOM      8  C   UNL     1       6.136  -5.785  -8.172  1.00  0.00     0.123 A 
ATOM      9  C   UNL     1       5.650  -4.493  -8.377  1.00  0.00     0.094 A 
ATOM     10  C   UNL     1       6.476  -3.384  -8.165  1.00  0.00     0.146 A 
ATOM     11  O   UNL     1       5.985  -2.166  -8.362  1.00  0.00    -0.452 OA
ENDROOT
BRANCH   1  12
ATOM     12  C   UNL     1       6.026   0.244  -8.424  1.00  0.00     0.021 A 
ATOM     13  C   UNL     1       5.445   0.978  -7.373  1.00  0.00     0.016 A 
ATOM     14  C   UNL     1       4.799   2.191  -7.630  1.00  0.00     0.047 A 
ATOM     15  C   UNL     1       4.715   2.680  -8.940  1.00  0.00     0.115 A 
ATOM     16  C   UNL     1       5.918   0.732  -9.737  1.00  0.00     0.016 A 
ATOM     17  C   UNL     1       5.272   1.947  -9.991  1.00  0.00     0.047 A 
BRANCH  15  18
ATOM     18  O   UNL     1       4.074   3.888  -9.208  1.00  0.00    -0.508 OA
ATOM     19  H   UNL     1       4.535   4.777  -9.051  1.00  0.00     0.293 HD
ENDBRANCH  15  18
ENDBRANCH   1  12
BRANCH   2  20
ATOM     20  O   UNL     1       8.816   0.015  -7.659  1.00  0.00    -0.502 OA
ATOM     21  H   UNL     1       9.658   0.168  -8.200  1.00  0.00     0.293 HD
ENDBRANCH   2  20
BRANCH   6  22
ATOM     22  O   UNL     1       9.617  -5.096  -7.124  1.00  0.00    -0.507 OA
ATOM     23  H   UNL     1      10.072  -4.489  -6.451  1.00  0.00     0.293 HD
ENDBRANCH   6  22
BRANCH   8  24
ATOM     24  O   UNL     1       5.297  -6.876  -8.388  1.00  0.00    -0.508 OA
ATOM     25  H   UNL     1       4.321  -6.754  -8.630  1.00  0.00     0.293 HD
ENDBRANCH   8  24
TORSDOF 5
ENDMDL
MODEL 4
REMARK VINA RESULT:    -4.741     13.160     15.270
REMARK INTER + INTRA:          -5.868
REMARK INTER:                  -5.630
REMARK INTRA:                  -0.238
REMARK UNBOUND:                -0.296
REMARK SMILES O=c1c(O)c(-c2ccc(O)cc2)oc2cc(O)cc(O)c12
REMARK SMILES IDX 5 1 3 2 2 3 1 4 21 5 19 6 18 7 16 8 15 9 14 10 13 11 6 12
REMARK SMILES IDX 7 13 8 14 9 15 12 16 11 17 10 18 4 20 20 22 17 24
REMARK H PARENT 10 19 4 21 20 23 17 25
REMARK Flexibility Score: inf
ROOT
ATOM      1  C   UNL     1      -5.456  -5.332  -7.563  1.00  0.00     0.180 A 
ATOM      2  C   UNL     1      -5.024  -6.455  -8.294  1.00  0.00     0.208 A 
ATOM      3  C   UNL     1      -5.709  -7.671  -8.136  1.00  0.00     0.238 A 
ATOM      4  O   UNL     1      -5.325  -8.687  -8.777  1.00  0.00    -0.285 OA
ATOM      5  C   UNL     1      -6.819  -7.738  -7.269  1.00  0.00     0.111 A 
ATOM      6  C   UNL     1      -7.565  -8.923  -7.057  1.00  0.00     0.134 A 
ATOM      7  C   UNL     1      -8.663  -8.905  -6.184  1.00  0.00     0.093 A 
ATOM      8  C   UNL     1      -9.029  -7.728  -5.522  1.00  0.00     0.123 A 
ATOM      9  C   UNL     1      -8.297  -6.558  -5.729  1.00  0.00     0.094 A 
ATOM     10  C   UNL     1      -7.198  -6.555  -6.593  1.00  0.00     0.146 A 
ATOM     11  O   UNL     1      -6.516  -5.429  -6.766  1.00  0.00    -0.452 OA
ENDROOT
BRANCH   1  12
ATOM     12  C   UNL     1      -4.774  -4.021  -7.661  1.00  0.00     0.021 A 
ATOM     13  C   UNL     1      -3.520  -3.799  -7.064  1.00  0.00     0.016 A 
ATOM     14  C   UNL     1      -2.907  -2.545  -7.150  1.00  0.00     0.047 A 
ATOM     15  C   UNL     1      -3.545  -1.495  -7.822  1.00  0.00     0.115 A 
ATOM     16  C   UNL     1      -5.416  -2.956  -8.315  1.00  0.00     0.016 A 
ATOM     17  C   UNL     1      -4.801  -1.702  -8.400  1.00  0.00     0.047 A 
BRANCH  15  18
ATOM     18  O   UNL     1      -2.944  -0.241  -7.915  1.00  0.00    -0.508 OA
ATOM     19  H   UNL     1      -3.231   0.433  -8.616  1.00  0.00     0.293 HD
ENDBRANCH  15  18
ENDBRANCH   1  12
BRANCH   2  20
ATOM     20  O   UNL     1      -3.953  -6.350  -9.185  1.00  0.00    -0.502 OA
ATOM     21  H   UNL     1      -3.844  -5.564  -9.813  1.00  0.00     0.293 HD
ENDBRANCH   2  20
BRANCH   6  22
ATOM     22  O   UNL     1      -7.224 -10.111  -7.703  1.00  0.00    -0.507 OA
ATOM     23  H   UNL     1      -6.716 -10.848  -7.229  1.00  0.00     0.293 HD
ENDBRANCH   6  22
BRANCH   8  24
ATOM     24  O   UNL     1     -10.121  -7.710  -4.657  1.00  0.00    -0.508 OA
ATOM     25  H   UNL     1     -10.008  -7.839  -3.658  1.00  0.00     0.293 HD
ENDBRANCH   8  24
TORSDOF 5
ENDMDL
MODEL 5
REMARK VINA RESULT:    -4.708     11.682     13.953
REMARK INTER + INTRA:          -5.829
REMARK INTER:                  -5.531
REMARK INTRA:                  -0.298
REMARK UNBOUND:                -0.296
REMARK SMILES O=c1c(O)c(-c2ccc(O)cc2)oc2cc(O)cc(O)c12
REMARK SMILES IDX 5 1 3 2 2 3 1 4 21 5 19 6 18 7 16 8 15 9 14 10 13 11 6 12
REMARK SMILES IDX 7 13 8 14 9 15 12 16 11 17 10 18 4 20 20 22 17 24
REMARK H PARENT 10 19 4 21 20 23 17 25
REMARK Flexibility Score: inf
ROOT
ATOM      1  C   UNL     1      -6.016  -1.325  -7.724  1.00  0.00     0.180 A 
ATOM      2  C   UNL     1      -6.350  -0.549  -8.851  1.00  0.00     0.208 A 
ATOM      3  C   UNL     1      -7.360   0.418  -8.733  1.00  0.00     0.238 A 
ATOM      4  O   UNL     1      -7.675   1.113  -9.739  1.00  0.00    -0.285 OA
ATOM      5  C   UNL     1      -8.003   0.607  -7.493  1.00  0.00     0.111 A 
ATOM      6  C   UNL     1      -9.027   1.564  -7.289  1.00  0.00     0.134 A 
ATOM      7  C   UNL     1      -9.612   1.696  -6.020  1.00  0.00     0.093 A 
ATOM      8  C   UNL     1      -9.192   0.894  -4.954  1.00  0.00     0.123 A 
ATOM      9  C   UNL     1      -8.182  -0.050  -5.151  1.00  0.00     0.094 A 
ATOM     10  C   UNL     1      -7.588  -0.200  -6.407  1.00  0.00     0.146 A 
ATOM     11  O   UNL     1      -6.634  -1.109  -6.567  1.00  0.00    -0.452 OA
ENDROOT
BRANCH   1  12
ATOM     12  C   UNL     1      -4.977  -2.378  -7.774  1.00  0.00     0.021 A 
ATOM     13  C   UNL     1      -5.290  -3.703  -8.128  1.00  0.00     0.016 A 
ATOM     14  C   UNL     1      -4.295  -4.686  -8.145  1.00  0.00     0.047 A 
ATOM     15  C   UNL     1      -2.979  -4.359  -7.796  1.00  0.00     0.115 A 
ATOM     16  C   UNL     1      -3.657  -2.065  -7.406  1.00  0.00     0.016 A 
ATOM     17  C   UNL     1      -2.664  -3.049  -7.425  1.00  0.00     0.047 A 
BRANCH  15  18
ATOM     18  O   UNL     1      -1.978  -5.330  -7.810  1.00  0.00    -0.508 OA
ATOM     19  H   UNL     1      -1.006  -5.085  -7.963  1.00  0.00     0.293 HD
ENDBRANCH  15  18
ENDBRANCH   1  12
BRANCH   2  20
ATOM     20  O   UNL     1      -5.663  -0.722 -10.056  1.00  0.00    -0.502 OA
ATOM     21  H   UNL     1      -5.869  -0.172 -10.881  1.00  0.00     0.293 HD
ENDBRANCH   2  20
BRANCH   6  22
ATOM     22  O   UNL     1      -9.467   2.378  -8.333  1.00  0.00    -0.507 OA
ATOM     23  H   UNL     1     -10.155   3.107  -8.186  1.00  0.00     0.293 HD
ENDBRANCH   6  22
BRANCH   8  24
ATOM     24  O   UNL     1      -9.771   1.027  -3.695  1.00  0.00    -0.508 OA
ATOM     25  H   UNL     1     -10.606   1.582  -3.551  1.00  0.00     0.293 HD
ENDBRANCH   8  24
TORSDOF 5
ENDMDL
MODEL 6
REMARK VINA RESULT:    -4.658     12.523     14.558
REMARK INTER + INTRA:          -5.771
REMARK INTER:                  -5.510
REMARK INTRA:                  -0.261
REMARK UNBOUND:                -0.296
REMARK SMILES O=c1c(O)c(-c2ccc(O)cc2)oc2cc(O)cc(O)c12
REMARK SMILES IDX 5 1 3 2 2 3 1 4 21 5 19 6 18 7 16 8 15 9 14 10 13 11 6 12
REMARK SMILES IDX 7 13 8 14 9 15 12 16 11 17 10 18 4 20 20 22 17 24
REMARK H PARENT 10 19 4 21 20 23 17 25
REMARK Flexibility Score: inf
ROOT
ATOM      1  C   UNL     1      -4.596  -5.425  -8.195  1.00  0.00     0.180 A 
ATOM      2  C   UNL     1      -4.017  -6.112  -9.279  1.00  0.00     0.208 A 
ATOM      3  C   UNL     1      -4.459  -7.411  -9.573  1.00  0.00     0.238 A 
ATOM      4  O   UNL     1      -3.940  -8.040 -10.536  1.00  0.00    -0.285 OA
ATOM      5  C   UNL     1      -5.480  -7.993  -8.794  1.00  0.00     0.111 A 
ATOM      6  C   UNL     1      -5.985  -9.295  -9.027  1.00  0.00     0.134 A 
ATOM      7  C   UNL     1      -7.010  -9.800  -8.212  1.00  0.00     0.093 A 
ATOM      8  C   UNL     1      -7.539  -9.027  -7.173  1.00  0.00     0.123 A 
ATOM      9  C   UNL     1      -7.045  -7.743  -6.940  1.00  0.00     0.094 A 
ATOM     10  C   UNL     1      -6.022  -7.223  -7.739  1.00  0.00     0.146 A 
ATOM     11  O   UNL     1      -5.567  -6.000  -7.492  1.00  0.00    -0.452 OA
ENDROOT
BRANCH   1  12
ATOM     12  C   UNL     1      -4.170  -4.060  -7.810  1.00  0.00     0.021 A 
ATOM     13  C   UNL     1      -2.980  -3.837  -7.093  1.00  0.00     0.016 A 
ATOM     14  C   UNL     1      -2.611  -2.540  -6.720  1.00  0.00     0.047 A 
ATOM     15  C   UNL     1      -3.432  -1.454  -7.047  1.00  0.00     0.115 A 
ATOM     16  C   UNL     1      -4.998  -2.967  -8.115  1.00  0.00     0.016 A 
ATOM     17  C   UNL     1      -4.626  -1.671  -7.742  1.00  0.00     0.047 A 
BRANCH  15  18
ATOM     18  O   UNL     1      -3.075  -0.157  -6.682  1.00  0.00    -0.508 OA
ATOM     19  H   UNL     1      -2.139   0.197  -6.839  1.00  0.00     0.293 HD
ENDBRANCH  15  18
ENDBRANCH   1  12
BRANCH   2  20
ATOM     20  O   UNL     1      -3.041  -5.494 -10.066  1.00  0.00    -0.502 OA
ATOM     21  H   UNL     1      -2.675  -4.574  -9.855  1.00  0.00     0.293 HD
ENDBRANCH   2  20
BRANCH   6  22
ATOM     22  O   UNL     1      -5.478 -10.089 -10.056  1.00  0.00    -0.507 OA
ATOM     23  H   UNL     1      -4.872 -10.879  -9.871  1.00  0.00     0.293 HD
ENDBRANCH   6  22
BRANCH   8  24
ATOM     24  O   UNL     1      -8.558  -9.527  -6.365  1.00  0.00    -0.508 OA
ATOM     25  H   UNL     1      -9.532  -9.461  -6.638  1.00  0.00     0.293 HD
ENDBRANCH   8  24
TORSDOF 5
ENDMDL
MODEL 7
REMARK VINA RESULT:    -4.511      1.506      3.305
REMARK INTER + INTRA:          -5.597
REMARK INTER:                  -5.615
REMARK INTRA:                   0.017
REMARK UNBOUND:                -0.296
REMARK SMILES O=c1c(O)c(-c2ccc(O)cc2)oc2cc(O)cc(O)c12
REMARK SMILES IDX 5 1 3 2 2 3 1 4 21 5 19 6 18 7 16 8 15 9 14 10 13 11 6 12
REMARK SMILES IDX 7 13 8 14 9 15 12 16 11 17 10 18 4 20 20 22 17 24
REMARK H PARENT 10 19 4 21 20 23 17 25
REMARK Flexibility Score: inf
ROOT
ATOM      1  C   UNL     1       6.740  -1.294  -8.425  1.00  0.00     0.180 A 
ATOM      2  C   UNL     1       5.488  -0.732  -8.110  1.00  0.00     0.208 A 
ATOM      3  C   UNL     1       5.240   0.607  -8.453  1.00  0.00     0.238 A 
ATOM      4  O   UNL     1       4.125   1.124  -8.167  1.00  0.00    -0.285 OA
ATOM      5  C   UNL     1       6.235   1.352  -9.118  1.00  0.00     0.111 A 
ATOM      6  C   UNL     1       6.063   2.704  -9.502  1.00  0.00     0.134 A 
ATOM      7  C   UNL     1       7.099   3.374 -10.169  1.00  0.00     0.093 A 
ATOM      8  C   UNL     1       8.301   2.719 -10.461  1.00  0.00     0.123 A 
ATOM      9  C   UNL     1       8.474   1.386 -10.085  1.00  0.00     0.094 A 
ATOM     10  C   UNL     1       7.455   0.701  -9.416  1.00  0.00     0.146 A 
ATOM     11  O   UNL     1       7.649  -0.565  -9.065  1.00  0.00    -0.452 OA
ENDROOT
BRANCH   1  12
ATOM     12  C   UNL     1       7.085  -2.691  -8.078  1.00  0.00     0.021 A 
ATOM     13  C   UNL     1       8.262  -3.005  -7.375  1.00  0.00     0.016 A 
ATOM     14  C   UNL     1       8.578  -4.335  -7.081  1.00  0.00     0.047 A 
ATOM     15  C   UNL     1       7.728  -5.368  -7.496  1.00  0.00     0.115 A 
ATOM     16  C   UNL     1       6.249  -3.736  -8.509  1.00  0.00     0.016 A 
ATOM     17  C   UNL     1       6.567  -5.065  -8.212  1.00  0.00     0.047 A 
BRANCH  15  18
ATOM     18  O   UNL     1       8.032  -6.698  -7.207  1.00  0.00    -0.508 OA
ATOM     19  H   UNL     1       8.535  -7.280  -7.866  1.00  0.00     0.293 HD
ENDBRANCH  15  18
ENDBRANCH   1  12
BRANCH   2  20
ATOM     20  O   UNL     1       4.501  -1.506  -7.495  1.00  0.00    -0.502 OA
ATOM     21  H   UNL     1       4.474  -1.657  -6.494  1.00  0.00     0.293 HD
ENDBRANCH   2  20
BRANCH   6  22
ATOM     22  O   UNL     1       4.876   3.383  -9.226  1.00  0.00    -0.507 OA
ATOM     23  H   UNL     1       4.876   4.323  -8.847  1.00  0.00     0.293 HD
ENDBRANCH   6  22
BRANCH   8  24
ATOM     24  O   UNL     1       9.328   3.384 -11.125  1.00  0.00    -0.508 OA
ATOM     25  H   UNL     1       9.137   4.108 -11.807  1.00  0.00     0.293 HD
ENDBRANCH   8  24
TORSDOF 5
ENDMDL
MODEL 8
REMARK VINA RESULT:    -4.456      2.097      6.925
REMARK INTER + INTRA:          -5.533
REMARK INTER:                  -5.376
REMARK INTRA:                  -0.157
REMARK UNBOUND:                -0.296
REMARK SMILES O=c1c(O)c(-c2ccc(O)cc2)oc2cc(O)cc(O)c12
REMARK SMILES IDX 5 1 3 2 2 3 1 4 21 5 19 6 18 7 16 8 15 9 14 10 13 11 6 12
REMARK SMILES IDX 7 13 8 14 9 15 12 16 11 17 10 18 4 20 20 22 17 24
REMARK H PARENT 10 19 4 21 20 23 17 25
REMARK Flexibility Score: inf
ROOT
ATOM      1  C   UNL     1       5.861  -1.408  -8.881  1.00  0.00     0.180 A 
ATOM      2  C   UNL     1       5.243  -2.471  -9.568  1.00  0.00     0.208 A 
ATOM      3  C   UNL     1       5.754  -3.769  -9.408  1.00  0.00     0.238 A 
ATOM      4  O   UNL     1       5.215  -4.728 -10.026  1.00  0.00    -0.285 OA
ATOM      5  C   UNL     1       6.854  -3.984  -8.554  1.00  0.00     0.111 A 
ATOM      6  C   UNL     1       7.426  -5.262  -8.335  1.00  0.00     0.134 A 
ATOM      7  C   UNL     1       8.516  -5.395  -7.462  1.00  0.00     0.093 A 
ATOM      8  C   UNL     1       9.044  -4.278  -6.805  1.00  0.00     0.123 A 
ATOM      9  C   UNL     1       8.483  -3.018  -7.017  1.00  0.00     0.094 A 
ATOM     10  C   UNL     1       7.398  -2.863  -7.885  1.00  0.00     0.146 A 
ATOM     11  O   UNL     1       6.889  -1.651  -8.073  1.00  0.00    -0.452 OA
ENDROOT
BRANCH   1  12
ATOM     12  C   UNL     1       5.395  -0.009  -9.014  1.00  0.00     0.021 A 
ATOM     13  C   UNL     1       5.462   0.675 -10.242  1.00  0.00     0.016 A 
ATOM     14  C   UNL     1       5.037   2.004 -10.336  1.00  0.00     0.047 A 
ATOM     15  C   UNL     1       4.552   2.669  -9.203  1.00  0.00     0.115 A 
ATOM     16  C   UNL     1       4.926   0.674  -7.878  1.00  0.00     0.016 A 
ATOM     17  C   UNL     1       4.500   2.003  -7.976  1.00  0.00     0.047 A 
BRANCH  15  18
ATOM     18  O   UNL     1       4.124   3.993  -9.285  1.00  0.00    -0.508 OA
ATOM     19  H   UNL     1       4.507   4.711  -8.681  1.00  0.00     0.293 HD
ENDBRANCH  15  18
ENDBRANCH   1  12
BRANCH   2  20
ATOM     20  O   UNL     1       4.123  -2.238 -10.369  1.00  0.00    -0.502 OA
ATOM     21  H   UNL     1       3.932  -1.335 -10.786  1.00  0.00     0.293 HD
ENDBRANCH   2  20
BRANCH   6  22
ATOM     22  O   UNL     1       6.921  -6.394  -8.975  1.00  0.00    -0.507 OA
ATOM     23  H   UNL     1       5.964  -6.437  -9.305  1.00  0.00     0.293 HD
ENDBRANCH   6  22
BRANCH   8  24
ATOM     24  O   UNL     1      10.125  -4.411  -5.937  1.00  0.00    -0.508 OA
ATOM     25  H   UNL     1      10.157  -5.144  -5.238  1.00  0.00     0.293 HD
ENDBRANCH   8  24
TORSDOF 5
ENDMDL
