MODEL 1
REMARK VINA RESULT:    -3.502      0.000      0.000
REMARK INTER + INTRA:          -6.452
REMARK INTER:                  -5.549
REMARK INTRA:                  -0.903
REMARK UNBOUND:                -0.903
REMARK SMILES CCCCCCCCCCCC(=O)[O-]
REMARK SMILES IDX 7 1 8 2 9 3 10 4 11 5 12 6 13 7 14 8 6 9 5 10 4 11 3 12 2 13
REMARK SMILES IDX 1 14
REMARK H PARENT
REMARK Flexibility Score: inf
ROOT
ATOM      1  C   UNL     1      60.351  31.290  60.181  1.00  0.00     0.000 C 
ENDROOT
BRANCH   1   2
ATOM      2  C   UNL     1      61.074  31.382  61.531  1.00  0.00     0.000 C 
BRANCH   2   3
ATOM      3  C   UNL     1      62.028  30.198  61.726  1.00  0.00     0.000 C 
BRANCH   3   4
ATOM      4  C   UNL     1      63.493  30.651  61.641  1.00  0.00     0.006 C 
BRANCH   4   5
ATOM      5  C   UNL     1      64.161  30.216  60.331  1.00  0.00     0.053 C 
BRANCH   5   6
ATOM      6  C   UNL     1      65.213  29.175  60.564  1.00  0.00     0.041 C 
ATOM      7  O   UNL     1      66.431  29.490  60.549  1.00  0.00    -0.550 OA
ATOM      8  O   UNL     1      64.844  27.862  60.829  1.00  0.00    -0.550 OA
ENDBRANCH   5   6
ENDBRANCH   4   5
ENDBRANCH   3   4
ENDBRANCH   2   3
ENDBRANCH   1   2
BRANCH   1   9
ATOM      9  C   UNL     1      60.611  32.539  59.330  1.00  0.00     0.000 C 
BRANCH   9  10
ATOM     10  C   UNL     1      61.745  33.383  59.922  1.00  0.00    -0.000 C 
BRANCH  10  11
ATOM     11  C   UNL     1      61.231  34.755  60.377  1.00  0.00    -0.000 C 
BRANCH  11  12
ATOM     12  C   UNL     1      62.377  35.618  60.925  1.00  0.00    -0.000 C 
BRANCH  12  13
ATOM     13  C   UNL     1      63.676  34.822  61.117  1.00  0.00    -0.003 C 
ATOM     14  C   UNL     1      64.759  35.622  61.841  1.00  0.00     0.004 C 
ENDBRANCH  12  13
ENDBRANCH  11  12
ENDBRANCH  10  11
ENDBRANCH   9  10
ENDBRANCH   1   9
TORSDOF 10
ENDMDL
MODEL 2
REMARK VINA RESULT:    -3.434     11.532     13.395
REMARK INTER + INTRA:          -6.344
REMARK INTER:                  -5.467
REMARK INTRA:                  -0.877
REMARK UNBOUND:                -0.903
REMARK SMILES CCCCCCCCCCCC(=O)[O-]
REMARK SMILES IDX 7 1 8 2 9 3 10 4 11 5 12 6 13 7 14 8 6 9 5 10 4 11 3 12 2 13
REMARK SMILES IDX 1 14
REMARK H PARENT
REMARK Flexibility Score: inf
ROOT
ATOM      1  C   UNL     1      57.966  29.711  51.149  1.00  0.00     0.000 C 
ENDROOT
BRANCH   1   2
ATOM      2  C   UNL     1      58.146  29.142  49.736  1.00  0.00     0.000 C 
BRANCH   2   3
ATOM      3  C   UNL     1      59.612  28.777  49.473  1.00  0.00     0.000 C 
BRANCH   3   4
ATOM      4  C   UNL     1      59.842  27.267  49.641  1.00  0.00     0.006 C 
BRANCH   4   5
ATOM      5  C   UNL     1      58.527  26.478  49.657  1.00  0.00     0.053 C 
BRANCH   5   6
ATOM      6  C   UNL     1      58.467  25.524  50.810  1.00  0.00     0.041 C 
ATOM      7  O   UNL     1      59.239  24.532  50.854  1.00  0.00    -0.550 OA
ATOM      8  O   UNL     1      57.577  25.751  51.853  1.00  0.00    -0.550 OA
ENDBRANCH   5   6
ENDBRANCH   4   5
ENDBRANCH   3   4
ENDBRANCH   2   3
ENDBRANCH   1   2
BRANCH   1   9
ATOM      9  C   UNL     1      56.507  29.595  51.608  1.00  0.00     0.000 C 
BRANCH   9  10
ATOM     10  C   UNL     1      55.710  28.668  50.683  1.00  0.00    -0.000 C 
BRANCH  10  11
ATOM     11  C   UNL     1      54.317  29.242  50.395  1.00  0.00    -0.000 C 
BRANCH  11  12
ATOM     12  C   UNL     1      53.369  28.151  49.875  1.00  0.00    -0.000 C 
BRANCH  12  13
ATOM     13  C   UNL     1      53.813  26.739  50.286  1.00  0.00    -0.003 C 
ATOM     14  C   UNL     1      53.981  25.801  49.090  1.00  0.00     0.004 C 
ENDBRANCH  12  13
ENDBRANCH  11  12
ENDBRANCH  10  11
ENDBRANCH   9  10
ENDBRANCH   1   9
TORSDOF 10
ENDMDL
MODEL 3
REMARK VINA RESULT:    -3.401      3.691      5.936
REMARK INTER + INTRA:          -6.293
REMARK INTER:                  -5.021
REMARK INTRA:                  -1.271
REMARK UNBOUND:                -0.903
REMARK SMILES CCCCCCCCCCCC(=O)[O-]
REMARK SMILES IDX 7 1 8 2 9 3 10 4 11 5 12 6 13 7 14 8 6 9 5 10 4 11 3 12 2 13
REMARK SMILES IDX 1 14
REMARK H PARENT
REMARK Flexibility Score: inf
ROOT
ATOM      1  C   UNL     1      64.454  31.974  60.043  1.00  0.00     0.000 C 
ENDROOT
BRANCH   1   2
ATOM      2  C   UNL     1      63.895  33.376  59.775  1.00  0.00     0.000 C 
BRANCH   2   3
ATOM      3  C   UNL     1      64.290  34.349  60.892  1.00  0.00     0.000 C 
BRANCH   3   4
ATOM      4  C   UNL     1      63.206  35.416  61.102  1.00  0.00     0.006 C 
BRANCH   4   5
ATOM      5  C   UNL     1      61.810  34.909  60.721  1.00  0.00     0.053 C 
BRANCH   5   6
ATOM      6  C   UNL     1      60.875  36.037  60.409  1.00  0.00     0.041 C 
ATOM      7  O   UNL     1      60.960  37.124  61.038  1.00  0.00    -0.550 OA
ATOM      8  O   UNL     1      59.931  35.897  59.400  1.00  0.00    -0.550 OA
ENDBRANCH   5   6
ENDBRANCH   4   5
ENDBRANCH   3   4
ENDBRANCH   2   3
ENDBRANCH   1   2
BRANCH   1   9
ATOM      9  C   UNL     1      63.955  31.428  61.387  1.00  0.00     0.000 C 
BRANCH   9  10
ATOM     10  C   UNL     1      63.236  30.087  61.203  1.00  0.00    -0.000 C 
BRANCH  10  11
ATOM     11  C   UNL     1      61.861  30.103  61.883  1.00  0.00    -0.000 C 
BRANCH  11  12
ATOM     12  C   UNL     1      61.039  31.321  61.435  1.00  0.00    -0.000 C 
BRANCH  12  13
ATOM     13  C   UNL     1      60.214  31.044  60.170  1.00  0.00    -0.003 C 
ATOM     14  C   UNL     1      60.518  32.027  59.039  1.00  0.00     0.004 C 
ENDBRANCH  12  13
ENDBRANCH  11  12
ENDBRANCH  10  11
ENDBRANCH   9  10
ENDBRANCH   1   9
TORSDOF 10
ENDMDL
MODEL 4
REMARK VINA RESULT:    -3.397     11.985     13.719
REMARK INTER + INTRA:          -6.285
REMARK INTER:                  -4.954
REMARK INTRA:                  -1.331
REMARK UNBOUND:                -0.903
REMARK SMILES CCCCCCCCCCCC(=O)[O-]
REMARK SMILES IDX 7 1 8 2 9 3 10 4 11 5 12 6 13 7 14 8 6 9 5 10 4 11 3 12 2 13
REMARK SMILES IDX 1 14
REMARK H PARENT
REMARK Flexibility Score: inf
ROOT
ATOM      1  C   UNL     1      57.833  29.287  51.215  1.00  0.00     0.000 C 
ENDROOT
BRANCH   1   2
ATOM      2  C   UNL     1      56.496  28.616  51.549  1.00  0.00     0.000 C 
BRANCH   2   3
ATOM      3  C   UNL     1      55.334  29.317  50.836  1.00  0.00     0.000 C 
BRANCH   3   4
ATOM      4  C   UNL     1      54.447  28.302  50.099  1.00  0.00     0.006 C 
BRANCH   4   5
ATOM      5  C   UNL     1      55.144  26.949  49.914  1.00  0.00     0.053 C 
BRANCH   5   6
ATOM      6  C   UNL     1      54.281  25.813  50.370  1.00  0.00     0.041 C 
ATOM      7  O   UNL     1      54.197  25.532  51.594  1.00  0.00    -0.550 OA
ATOM      8  O   UNL     1      53.543  25.085  49.444  1.00  0.00    -0.550 OA
ENDBRANCH   5   6
ENDBRANCH   4   5
ENDBRANCH   3   4
ENDBRANCH   2   3
ENDBRANCH   1   2
BRANCH   1   9
ATOM      9  C   UNL     1      58.041  29.376  49.698  1.00  0.00     0.000 C 
BRANCH   9  10
ATOM     10  C   UNL     1      59.322  28.647  49.274  1.00  0.00    -0.000 C 
BRANCH  10  11
ATOM     11  C   UNL     1      59.151  27.127  49.381  1.00  0.00    -0.000 C 
BRANCH  11  12
ATOM     12  C   UNL     1      60.262  26.507  50.242  1.00  0.00    -0.000 C 
BRANCH  12  13
ATOM     13  C   UNL     1      59.714  25.769  51.471  1.00  0.00    -0.003 C 
ATOM     14  C   UNL     1      58.250  25.358  51.311  1.00  0.00     0.004 C 
ENDBRANCH  12  13
ENDBRANCH  11  12
ENDBRANCH  10  11
ENDBRANCH   9  10
ENDBRANCH   1   9
TORSDOF 10
ENDMDL
MODEL 5
REMARK VINA RESULT:    -3.369      2.953      5.205
REMARK INTER + INTRA:          -6.242
REMARK INTER:                  -4.954
REMARK INTRA:                  -1.288
REMARK UNBOUND:                -0.903
REMARK SMILES CCCCCCCCCCCC(=O)[O-]
REMARK SMILES IDX 7 1 8 2 9 3 10 4 11 5 12 6 13 7 14 8 6 9 5 10 4 11 3 12 2 13
REMARK SMILES IDX 1 14
REMARK H PARENT
REMARK Flexibility Score: inf
ROOT
ATOM      1  C   UNL     1      60.775  31.905  60.510  1.00  0.00     0.000 C 
ENDROOT
BRANCH   1   2
ATOM      2  C   UNL     1      61.562  33.213  60.650  1.00  0.00     0.000 C 
BRANCH   2   3
ATOM      3  C   UNL     1      62.389  33.496  59.390  1.00  0.00     0.000 C 
BRANCH   3   4
ATOM      4  C   UNL     1      63.868  33.715  59.740  1.00  0.00     0.006 C 
BRANCH   4   5
ATOM      5  C   UNL     1      64.075  34.010  61.231  1.00  0.00     0.053 C 
BRANCH   5   6
ATOM      6  C   UNL     1      64.313  35.468  61.479  1.00  0.00     0.041 C 
ATOM      7  O   UNL     1      65.485  35.905  61.614  1.00  0.00    -0.550 OA
ATOM      8  O   UNL     1      63.239  36.348  61.531  1.00  0.00    -0.550 OA
ENDBRANCH   5   6
ENDBRANCH   4   5
ENDBRANCH   3   4
ENDBRANCH   2   3
ENDBRANCH   1   2
BRANCH   1   9
ATOM      9  C   UNL     1      60.973  31.008  61.738  1.00  0.00     0.000 C 
BRANCH   9  10
ATOM     10  C   UNL     1      62.377  30.392  61.750  1.00  0.00    -0.000 C 
BRANCH  10  11
ATOM     11  C   UNL     1      62.644  29.606  60.460  1.00  0.00    -0.000 C 
BRANCH  11  12
ATOM     12  C   UNL     1      63.962  30.050  59.808  1.00  0.00    -0.000 C 
BRANCH  12  13
ATOM     13  C   UNL     1      65.191  29.695  60.658  1.00  0.00    -0.003 C 
ATOM     14  C   UNL     1      65.441  28.189  60.736  1.00  0.00     0.004 C 
ENDBRANCH  12  13
ENDBRANCH  11  12
ENDBRANCH  10  11
ENDBRANCH   9  10
ENDBRANCH   1   9
TORSDOF 10
ENDMDL
MODEL 6
REMARK VINA RESULT:    -3.367      3.087      5.537
REMARK INTER + INTRA:          -6.238
REMARK INTER:                  -4.843
REMARK INTRA:                  -1.395
REMARK UNBOUND:                -0.903
REMARK SMILES CCCCCCCCCCCC(=O)[O-]
REMARK SMILES IDX 7 1 8 2 9 3 10 4 11 5 12 6 13 7 14 8 6 9 5 10 4 11 3 12 2 13
REMARK SMILES IDX 1 14
REMARK H PARENT
REMARK Flexibility Score: inf
ROOT
ATOM      1  C   UNL     1      63.512  32.724  59.313  1.00  0.00     0.000 C 
ENDROOT
BRANCH   1   2
ATOM      2  C   UNL     1      62.627  33.976  59.300  1.00  0.00     0.000 C 
BRANCH   2   3
ATOM      3  C   UNL     1      62.137  34.319  60.711  1.00  0.00     0.000 C 
BRANCH   3   4
ATOM      4  C   UNL     1      62.416  35.791  61.049  1.00  0.00     0.006 C 
BRANCH   4   5
ATOM      5  C   UNL     1      63.555  36.375  60.203  1.00  0.00     0.053 C 
BRANCH   5   6
ATOM      6  C   UNL     1      64.876  36.266  60.900  1.00  0.00     0.041 C 
ATOM      7  O   UNL     1      64.924  36.041  62.137  1.00  0.00    -0.550 OA
ATOM      8  O   UNL     1      66.055  36.383  60.175  1.00  0.00    -0.550 OA
ENDBRANCH   5   6
ENDBRANCH   4   5
ENDBRANCH   3   4
ENDBRANCH   2   3
ENDBRANCH   1   2
BRANCH   1   9
ATOM      9  C   UNL     1      64.225  32.567  60.661  1.00  0.00     0.000 C 
BRANCH   9  10
ATOM     10  C   UNL     1      64.199  31.108  61.131  1.00  0.00    -0.000 C 
BRANCH  10  11
ATOM     11  C   UNL     1      62.913  30.407  60.676  1.00  0.00    -0.000 C 
BRANCH  11  12
ATOM     12  C   UNL     1      61.929  30.251  61.845  1.00  0.00    -0.000 C 
BRANCH  12  13
ATOM     13  C   UNL     1      60.664  31.104  61.670  1.00  0.00    -0.003 C 
ATOM     14  C   UNL     1      60.208  31.194  60.214  1.00  0.00     0.004 C 
ENDBRANCH  12  13
ENDBRANCH  11  12
ENDBRANCH  10  11
ENDBRANCH   9  10
ENDBRANCH   1   9
TORSDOF 10
ENDMDL
MODEL 7
REMARK VINA RESULT:    -3.343      1.900      2.815
REMARK INTER + INTRA:          -6.200
REMARK INTER:                  -5.152
REMARK INTRA:                  -1.047
REMARK UNBOUND:                -0.903
REMARK SMILES CCCCCCCCCCCC(=O)[O-]
REMARK SMILES IDX 7 1 8 2 9 3 10 4 11 5 12 6 13 7 14 8 6 9 5 10 4 11 3 12 2 13
REMARK SMILES IDX 1 14
REMARK H PARENT
REMARK Flexibility Score: inf
ROOT
ATOM      1  C   UNL     1      61.874  34.153  58.460  1.00  0.00     0.000 C 
ENDROOT
BRANCH   1   2
ATOM      2  C   UNL     1      61.904  32.647  58.749  1.00  0.00     0.000 C 
BRANCH   2   3
ATOM      3  C   UNL     1      60.716  32.231  59.623  1.00  0.00     0.000 C 
BRANCH   3   4
ATOM      4  C   UNL     1      61.112  32.188  61.106  1.00  0.00     0.006 C 
BRANCH   4   5
ATOM      5  C   UNL     1      60.854  30.813  61.737  1.00  0.00     0.053 C 
BRANCH   5   6
ATOM      6  C   UNL     1      62.084  29.959  61.728  1.00  0.00     0.041 C 
ATOM      7  O   UNL     1      63.225  30.489  61.713  1.00  0.00    -0.550 OA
ATOM      8  O   UNL     1      61.968  28.575  61.768  1.00  0.00    -0.550 OA
ENDBRANCH   5   6
ENDBRANCH   4   5
ENDBRANCH   3   4
ENDBRANCH   2   3
ENDBRANCH   1   2
BRANCH   1   9
ATOM      9  C   UNL     1      60.445  34.703  58.544  1.00  0.00     0.000 C 
BRANCH   9  10
ATOM     10  C   UNL     1      60.374  35.909  59.487  1.00  0.00    -0.000 C 
BRANCH  10  11
ATOM     11  C   UNL     1      61.279  35.706  60.709  1.00  0.00    -0.000 C 
BRANCH  11  12
ATOM     12  C   UNL     1      62.083  36.979  61.015  1.00  0.00    -0.000 C 
BRANCH  12  13
ATOM     13  C   UNL     1      63.535  36.678  61.416  1.00  0.00    -0.003 C 
ATOM     14  C   UNL     1      63.881  35.192  61.316  1.00  0.00     0.004 C 
ENDBRANCH  12  13
ENDBRANCH  11  12
ENDBRANCH  10  11
ENDBRANCH   9  10
ENDBRANCH   1   9
TORSDOF 10
ENDMDL
MODEL 8
REMARK VINA RESULT:    -3.316     11.922     13.256
REMARK INTER + INTRA:          -6.157
REMARK INTER:                  -5.114
REMARK INTRA:                  -1.043
REMARK UNBOUND:                -0.903
REMARK SMILES CCCCCCCCCCCC(=O)[O-]
REMARK SMILES IDX 7 1 8 2 9 3 10 4 11 5 12 6 13 7 14 8 6 9 5 10 4 11 3 12 2 13
REMARK SMILES IDX 1 14
REMARK H PARENT
REMARK Flexibility Score: inf
ROOT
ATOM      1  C   UNL     1      57.262  27.651  50.102  1.00  0.00     0.000 C 
ENDROOT
BRANCH   1   2
ATOM      2  C   UNL     1      57.515  29.140  50.363  1.00  0.00     0.000 C 
BRANCH   2   3
ATOM      3  C   UNL     1      58.868  29.578  49.790  1.00  0.00     0.000 C 
BRANCH   3   4
ATOM      4  C   UNL     1      59.549  28.422  49.043  1.00  0.00     0.006 C 
BRANCH   4   5
ATOM      5  C   UNL     1      60.966  28.148  49.563  1.00  0.00     0.053 C 
BRANCH   5   6
ATOM      6  C   UNL     1      61.125  26.731  50.019  1.00  0.00     0.041 C 
ATOM      7  O   UNL     1      62.139  26.387  50.679  1.00  0.00    -0.550 OA
ATOM      8  O   UNL     1      60.136  25.796  49.740  1.00  0.00    -0.550 OA
ENDBRANCH   5   6
ENDBRANCH   4   5
ENDBRANCH   3   4
ENDBRANCH   2   3
ENDBRANCH   1   2
BRANCH   1   9
ATOM      9  C   UNL     1      56.811  26.934  51.381  1.00  0.00     0.000 C 
BRANCH   9  10
ATOM     10  C   UNL     1      55.430  26.296  51.197  1.00  0.00    -0.000 C 
BRANCH  10  11
ATOM     11  C   UNL     1      54.975  26.381  49.734  1.00  0.00    -0.000 C 
BRANCH  11  12
ATOM     12  C   UNL     1      53.639  27.130  49.617  1.00  0.00    -0.000 C 
BRANCH  12  13
ATOM     13  C   UNL     1      53.422  28.134  50.759  1.00  0.00    -0.003 C 
ATOM     14  C   UNL     1      53.716  29.575  50.344  1.00  0.00     0.004 C 
ENDBRANCH  12  13
ENDBRANCH  11  12
ENDBRANCH  10  11
ENDBRANCH   9  10
ENDBRANCH   1   9
TORSDOF 10
ENDMDL
