MODEL 1
REMARK VINA RESULT:    28.935      0.000      0.000
REMARK INTER + INTRA:          74.811
REMARK INTER:                  76.299
REMARK INTRA:                  -1.488
REMARK UNBOUND:                -1.488
REMARK SMILES CCCCCCCCCCCCCCCCCCCCCCCCCCCCCC(=O)[O-]
REMARK SMILES IDX 16 1 17 2 18 3 19 4 20 5 21 6 22 7 23 8 24 9 25 10 26 11
REMARK SMILES IDX 27 12 28 13 29 14 30 15 31 16 32 17 15 18 14 19 13 20 12 21
REMARK SMILES IDX 11 22 10 23 9 24 8 25 7 26 6 27 5 28 4 29 3 30 2 31 1 32
REMARK H PARENT
REMARK Flexibility Score: inf
ROOT
ATOM      1  C   UNL     1     -17.545 -15.838 -16.505  1.00  0.00     0.000 C 
ENDROOT
BRANCH   1   2
ATOM      2  C   UNL     1     -18.405 -16.916 -15.819  1.00  0.00     0.000 C 
BRANCH   2   3
ATOM      3  C   UNL     1     -19.418 -17.615 -16.747  1.00  0.00     0.000 C 
BRANCH   3   4
ATOM      4  C   UNL     1     -20.622 -18.283 -16.052  1.00  0.00     0.000 C 
BRANCH   4   5
ATOM      5  C   UNL     1     -21.073 -17.630 -14.732  1.00  0.00     0.000 C 
BRANCH   5   6
ATOM      6  C   UNL     1     -21.977 -16.404 -14.950  1.00  0.00     0.000 C 
BRANCH   6   7
ATOM      7  C   UNL     1     -23.226 -16.414 -14.049  1.00  0.00     0.000 C 
BRANCH   7   8
ATOM      8  C   UNL     1     -23.049 -15.741 -12.672  1.00  0.00     0.000 C 
BRANCH   8   9
ATOM      9  C   UNL     1     -22.935 -16.711 -11.483  1.00  0.00     0.000 C 
BRANCH   9  10
ATOM     10  C   UNL     1     -22.810 -18.179 -11.919  1.00  0.00     0.000 C 
BRANCH  10  11
ATOM     11  C   UNL     1     -23.566 -19.103 -10.957  1.00  0.00     0.000 C 
BRANCH  11  12
ATOM     12  C   UNL     1     -24.970 -18.554 -10.653  1.00  0.00     0.000 C 
BRANCH  12  13
ATOM     13  C   UNL     1     -25.644 -19.262  -9.463  1.00  0.00     0.006 C 
BRANCH  13  14
ATOM     14  C   UNL     1     -26.826 -18.492  -8.854  1.00  0.00     0.053 C 
BRANCH  14  15
ATOM     15  C   UNL     1     -28.032 -19.363  -8.675  1.00  0.00     0.041 C 
ATOM     16  O   UNL     1     -28.774 -19.628  -9.656  1.00  0.00    -0.550 OA
ATOM     17  O   UNL     1     -28.318 -19.907  -7.429  1.00  0.00    -0.550 OA
ENDBRANCH  14  15
ENDBRANCH  13  14
ENDBRANCH  12  13
ENDBRANCH  11  12
ENDBRANCH  10  11
ENDBRANCH   9  10
ENDBRANCH   8   9
ENDBRANCH   7   8
ENDBRANCH   6   7
ENDBRANCH   5   6
ENDBRANCH   4   5
ENDBRANCH   3   4
ENDBRANCH   2   3
ENDBRANCH   1   2
BRANCH   1  18
ATOM     18  C   UNL     1     -16.991 -16.272 -17.874  1.00  0.00     0.000 C 
BRANCH  18  19
ATOM     19  C   UNL     1     -17.360 -15.267 -18.976  1.00  0.00     0.000 C 
BRANCH  19  20
ATOM     20  C   UNL     1     -16.486 -15.436 -20.238  1.00  0.00     0.000 C 
BRANCH  20  21
ATOM     21  C   UNL     1     -15.783 -14.134 -20.665  1.00  0.00     0.000 C 
BRANCH  21  22
ATOM     22  C   UNL     1     -16.157 -13.652 -22.082  1.00  0.00     0.000 C 
BRANCH  22  23
ATOM     23  C   UNL     1     -15.643 -12.235 -22.382  1.00  0.00     0.000 C 
BRANCH  23  24
ATOM     24  C   UNL     1     -14.549 -12.217 -23.464  1.00  0.00    -0.000 C 
BRANCH  24  25
ATOM     25  C   UNL     1     -13.856 -10.854 -23.664  1.00  0.00    -0.000 C 
BRANCH  25  26
ATOM     26  C   UNL     1     -14.694  -9.625 -23.257  1.00  0.00    -0.000 C 
BRANCH  26  27
ATOM     27  C   UNL     1     -13.879  -8.391 -22.822  1.00  0.00    -0.000 C 
BRANCH  27  28
ATOM     28  C   UNL     1     -12.420  -8.688 -22.416  1.00  0.00    -0.000 C 
BRANCH  28  29
ATOM     29  C   UNL     1     -12.211  -8.977 -20.917  1.00  0.00    -0.000 C 
BRANCH  29  30
ATOM     30  C   UNL     1     -12.751  -7.892 -19.963  1.00  0.00    -0.000 C 
BRANCH  30  31
ATOM     31  C   UNL     1     -12.400  -8.099 -18.479  1.00  0.00    -0.003 C 
ATOM     32  C   UNL     1     -13.056  -9.342 -17.876  1.00  0.00     0.004 C 
ENDBRANCH  30  31
ENDBRANCH  29  30
ENDBRANCH  28  29
ENDBRANCH  27  28
ENDBRANCH  26  27
ENDBRANCH  25  26
ENDBRANCH  24  25
ENDBRANCH  23  24
ENDBRANCH  22  23
ENDBRANCH  21  22
ENDBRANCH  20  21
ENDBRANCH  19  20
ENDBRANCH  18  19
ENDBRANCH   1  18
TORSDOF 28
ENDMDL
MODEL 2
REMARK VINA RESULT:    29.335      2.768      5.213
REMARK INTER + INTRA:          75.865
REMARK INTER:                  75.821
REMARK INTRA:                   0.044
REMARK UNBOUND:                -1.488
REMARK SMILES CCCCCCCCCCCCCCCCCCCCCCCCCCCCCC(=O)[O-]
REMARK SMILES IDX 16 1 17 2 18 3 19 4 20 5 21 6 22 7 23 8 24 9 25 10 26 11
REMARK SMILES IDX 27 12 28 13 29 14 30 15 31 16 32 17 15 18 14 19 13 20 12 21
REMARK SMILES IDX 11 22 10 23 9 24 8 25 7 26 6 27 5 28 4 29 3 30 2 31 1 32
REMARK H PARENT
REMARK Flexibility Score: inf
ROOT
ATOM      1  C   UNL     1     -16.671 -13.369 -22.130  1.00  0.00     0.000 C 
ENDROOT
BRANCH   1   2
ATOM      2  C   UNL     1     -16.057 -14.278 -21.049  1.00  0.00     0.000 C 
BRANCH   2   3
ATOM      3  C   UNL     1     -17.072 -14.851 -20.039  1.00  0.00     0.000 C 
BRANCH   3   4
ATOM      4  C   UNL     1     -16.601 -16.074 -19.228  1.00  0.00     0.000 C 
BRANCH   4   5
ATOM      5  C   UNL     1     -17.465 -16.433 -18.004  1.00  0.00     0.000 C 
BRANCH   5   6
ATOM      6  C   UNL     1     -17.361 -15.393 -16.875  1.00  0.00     0.000 C 
BRANCH   6   7
ATOM      7  C   UNL     1     -18.051 -15.850 -15.576  1.00  0.00     0.000 C 
BRANCH   7   8
ATOM      8  C   UNL     1     -18.459 -17.337 -15.536  1.00  0.00     0.000 C 
BRANCH   8   9
ATOM      9  C   UNL     1     -19.749 -17.680 -16.301  1.00  0.00     0.000 C 
BRANCH   9  10
ATOM     10  C   UNL     1     -21.010 -17.556 -15.433  1.00  0.00     0.000 C 
BRANCH  10  11
ATOM     11  C   UNL     1     -21.521 -16.110 -15.411  1.00  0.00     0.000 C 
BRANCH  11  12
ATOM     12  C   UNL     1     -22.730 -15.967 -14.472  1.00  0.00     0.000 C 
BRANCH  12  13
ATOM     13  C   UNL     1     -22.516 -16.656 -13.112  1.00  0.00     0.006 C 
BRANCH  13  14
ATOM     14  C   UNL     1     -23.530 -16.253 -12.030  1.00  0.00     0.053 C 
BRANCH  14  15
ATOM     15  C   UNL     1     -23.725 -14.769 -11.967  1.00  0.00     0.041 C 
ATOM     16  O   UNL     1     -24.835 -14.261 -12.277  1.00  0.00    -0.550 OA
ATOM     17  O   UNL     1     -22.691 -13.949 -11.536  1.00  0.00    -0.550 OA
ENDBRANCH  14  15
ENDBRANCH  13  14
ENDBRANCH  12  13
ENDBRANCH  11  12
ENDBRANCH  10  11
ENDBRANCH   9  10
ENDBRANCH   8   9
ENDBRANCH   7   8
ENDBRANCH   6   7
ENDBRANCH   5   6
ENDBRANCH   4   5
ENDBRANCH   3   4
ENDBRANCH   2   3
ENDBRANCH   1   2
BRANCH   1  18
ATOM     18  C   UNL     1     -15.740 -13.132 -23.333  1.00  0.00     0.000 C 
BRANCH  18  19
ATOM     19  C   UNL     1     -14.531 -12.266 -22.949  1.00  0.00     0.000 C 
BRANCH  19  20
ATOM     20  C   UNL     1     -13.735 -11.790 -24.184  1.00  0.00     0.000 C 
BRANCH  20  21
ATOM     21  C   UNL     1     -14.047 -10.336 -24.582  1.00  0.00     0.000 C 
BRANCH  21  22
ATOM     22  C   UNL     1     -14.225  -9.380 -23.384  1.00  0.00     0.000 C 
BRANCH  22  23
ATOM     23  C   UNL     1     -15.187  -8.220 -23.687  1.00  0.00     0.000 C 
BRANCH  23  24
ATOM     24  C   UNL     1     -14.455  -6.890 -23.936  1.00  0.00    -0.000 C 
BRANCH  24  25
ATOM     25  C   UNL     1     -13.971  -6.167 -22.663  1.00  0.00    -0.000 C 
BRANCH  25  26
ATOM     26  C   UNL     1     -13.768  -7.072 -21.431  1.00  0.00    -0.000 C 
BRANCH  26  27
ATOM     27  C   UNL     1     -12.684  -8.158 -21.587  1.00  0.00    -0.000 C 
BRANCH  27  28
ATOM     28  C   UNL     1     -12.294  -8.876 -20.279  1.00  0.00    -0.000 C 
BRANCH  28  29
ATOM     29  C   UNL     1     -11.789  -7.948 -19.156  1.00  0.00    -0.000 C 
BRANCH  29  30
ATOM     30  C   UNL     1     -12.349  -8.258 -17.753  1.00  0.00    -0.000 C 
BRANCH  30  31
ATOM     31  C   UNL     1     -13.707  -8.981 -17.741  1.00  0.00    -0.003 C 
ATOM     32  C   UNL     1     -14.895  -8.024 -17.838  1.00  0.00     0.004 C 
ENDBRANCH  30  31
ENDBRANCH  29  30
ENDBRANCH  28  29
ENDBRANCH  27  28
ENDBRANCH  26  27
ENDBRANCH  25  26
ENDBRANCH  24  25
ENDBRANCH  23  24
ENDBRANCH  22  23
ENDBRANCH  21  22
ENDBRANCH  20  21
ENDBRANCH  19  20
ENDBRANCH  18  19
ENDBRANCH   1  18
TORSDOF 28
ENDMDL
MODEL 3
REMARK VINA RESULT:    29.647      5.447     14.200
REMARK INTER + INTRA:          76.687
REMARK INTER:                  78.500
REMARK INTRA:                  -1.813
REMARK UNBOUND:                -1.488
REMARK SMILES CCCCCCCCCCCCCCCCCCCCCCCCCCCCCC(=O)[O-]
REMARK SMILES IDX 16 1 17 2 18 3 19 4 20 5 21 6 22 7 23 8 24 9 25 10 26 11
REMARK SMILES IDX 27 12 28 13 29 14 30 15 31 16 32 17 15 18 14 19 13 20 12 21
REMARK SMILES IDX 11 22 10 23 9 24 8 25 7 26 6 27 5 28 4 29 3 30 2 31 1 32
REMARK H PARENT
REMARK Flexibility Score: inf
ROOT
ATOM      1  C   UNL     1     -16.172 -15.676 -19.718  1.00  0.00     0.000 C 
ENDROOT
BRANCH   1   2
ATOM      2  C   UNL     1     -16.964 -14.565 -20.433  1.00  0.00     0.000 C 
BRANCH   2   3
ATOM      3  C   UNL     1     -16.109 -13.628 -21.309  1.00  0.00     0.000 C 
BRANCH   3   4
ATOM      4  C   UNL     1     -16.208 -13.849 -22.831  1.00  0.00     0.000 C 
BRANCH   4   5
ATOM      5  C   UNL     1     -15.803 -12.647 -23.705  1.00  0.00     0.000 C 
BRANCH   5   6
ATOM      6  C   UNL     1     -14.297 -12.339 -23.636  1.00  0.00     0.000 C 
BRANCH   6   7
ATOM      7  C   UNL     1     -13.990 -11.011 -22.920  1.00  0.00     0.000 C 
BRANCH   7   8
ATOM      8  C   UNL     1     -13.891  -9.776 -23.838  1.00  0.00     0.000 C 
BRANCH   8   9
ATOM      9  C   UNL     1     -14.911  -8.662 -23.545  1.00  0.00     0.000 C 
BRANCH   9  10
ATOM     10  C   UNL     1     -14.253  -7.361 -23.062  1.00  0.00     0.000 C 
BRANCH  10  11
ATOM     11  C   UNL     1     -14.775  -6.962 -21.677  1.00  0.00     0.000 C 
BRANCH  11  12
ATOM     12  C   UNL     1     -13.625  -6.862 -20.662  1.00  0.00     0.000 C 
BRANCH  12  13
ATOM     13  C   UNL     1     -12.734  -8.118 -20.642  1.00  0.00     0.006 C 
BRANCH  13  14
ATOM     14  C   UNL     1     -12.007  -8.359 -19.310  1.00  0.00     0.053 C 
BRANCH  14  15
ATOM     15  C   UNL     1     -12.947  -8.792 -18.226  1.00  0.00     0.041 C 
ATOM     16  O   UNL     1     -13.807  -7.991 -17.774  1.00  0.00    -0.550 OA
ATOM     17  O   UNL     1     -12.894 -10.091 -17.738  1.00  0.00    -0.550 OA
ENDBRANCH  14  15
ENDBRANCH  13  14
ENDBRANCH  12  13
ENDBRANCH  11  12
ENDBRANCH  10  11
ENDBRANCH   9  10
ENDBRANCH   8   9
ENDBRANCH   7   8
ENDBRANCH   6   7
ENDBRANCH   5   6
ENDBRANCH   4   5
ENDBRANCH   3   4
ENDBRANCH   2   3
ENDBRANCH   1   2
BRANCH   1  18
ATOM     18  C   UNL     1     -16.945 -16.336 -18.563  1.00  0.00     0.000 C 
BRANCH  18  19
ATOM     19  C   UNL     1     -16.982 -15.433 -17.320  1.00  0.00     0.000 C 
BRANCH  19  20
ATOM     20  C   UNL     1     -17.293 -16.224 -16.031  1.00  0.00     0.000 C 
BRANCH  20  21
ATOM     21  C   UNL     1     -18.788 -16.557 -15.871  1.00  0.00     0.000 C 
BRANCH  21  22
ATOM     22  C   UNL     1     -19.233 -17.830 -16.619  1.00  0.00     0.000 C 
BRANCH  22  23
ATOM     23  C   UNL     1     -20.593 -18.359 -16.134  1.00  0.00     0.000 C 
BRANCH  23  24
ATOM     24  C   UNL     1     -21.128 -17.592 -14.912  1.00  0.00    -0.000 C 
BRANCH  24  25
ATOM     25  C   UNL     1     -22.544 -17.006 -15.082  1.00  0.00    -0.000 C 
BRANCH  25  26
ATOM     26  C   UNL     1     -22.659 -15.486 -14.851  1.00  0.00    -0.000 C 
BRANCH  26  27
ATOM     27  C   UNL     1     -24.065 -14.986 -14.466  1.00  0.00    -0.000 C 
BRANCH  27  28
ATOM     28  C   UNL     1     -24.329 -14.900 -12.949  1.00  0.00    -0.000 C 
BRANCH  28  29
ATOM     29  C   UNL     1     -23.083 -14.608 -12.090  1.00  0.00    -0.000 C 
BRANCH  29  30
ATOM     30  C   UNL     1     -22.431 -15.847 -11.444  1.00  0.00    -0.000 C 
BRANCH  30  31
ATOM     31  C   UNL     1     -23.274 -17.133 -11.512  1.00  0.00    -0.003 C 
ATOM     32  C   UNL     1     -22.434 -18.385 -11.766  1.00  0.00     0.004 C 
ENDBRANCH  30  31
ENDBRANCH  29  30
ENDBRANCH  28  29
ENDBRANCH  27  28
ENDBRANCH  26  27
ENDBRANCH  25  26
ENDBRANCH  24  25
ENDBRANCH  23  24
ENDBRANCH  22  23
ENDBRANCH  21  22
ENDBRANCH  20  21
ENDBRANCH  19  20
ENDBRANCH  18  19
ENDBRANCH   1  18
TORSDOF 28
ENDMDL
MODEL 4
REMARK VINA RESULT:    29.673      3.097      5.475
REMARK INTER + INTRA:          76.755
REMARK INTER:                  76.072
REMARK INTRA:                   0.683
REMARK UNBOUND:                -1.488
REMARK SMILES CCCCCCCCCCCCCCCCCCCCCCCCCCCCCC(=O)[O-]
REMARK SMILES IDX 16 1 17 2 18 3 19 4 20 5 21 6 22 7 23 8 24 9 25 10 26 11
REMARK SMILES IDX 27 12 28 13 29 14 30 15 31 16 32 17 15 18 14 19 13 20 12 21
REMARK SMILES IDX 11 22 10 23 9 24 8 25 7 26 6 27 5 28 4 29 3 30 2 31 1 32
REMARK H PARENT
REMARK Flexibility Score: inf
ROOT
ATOM      1  C   UNL     1     -16.430 -14.129 -22.577  1.00  0.00     0.000 C 
ENDROOT
BRANCH   1   2
ATOM      2  C   UNL     1     -16.276 -13.854 -21.070  1.00  0.00     0.000 C 
BRANCH   2   3
ATOM      3  C   UNL     1     -15.868 -15.081 -20.231  1.00  0.00     0.000 C 
BRANCH   3   4
ATOM      4  C   UNL     1     -17.016 -15.830 -19.526  1.00  0.00     0.000 C 
BRANCH   4   5
ATOM      5  C   UNL     1     -16.786 -16.150 -18.037  1.00  0.00     0.000 C 
BRANCH   5   6
ATOM      6  C   UNL     1     -17.670 -15.306 -17.102  1.00  0.00     0.000 C 
BRANCH   6   7
ATOM      7  C   UNL     1     -17.618 -15.782 -15.639  1.00  0.00     0.000 C 
BRANCH   7   8
ATOM      8  C   UNL     1     -18.634 -16.882 -15.268  1.00  0.00     0.000 C 
BRANCH   8   9
ATOM      9  C   UNL     1     -19.277 -17.605 -16.465  1.00  0.00     0.000 C 
BRANCH   9  10
ATOM     10  C   UNL     1     -20.608 -18.283 -16.109  1.00  0.00     0.000 C 
BRANCH  10  11
ATOM     11  C   UNL     1     -21.245 -17.629 -14.877  1.00  0.00     0.000 C 
BRANCH  11  12
ATOM     12  C   UNL     1     -22.397 -16.695 -15.281  1.00  0.00     0.000 C 
BRANCH  12  13
ATOM     13  C   UNL     1     -22.545 -15.485 -14.339  1.00  0.00     0.006 C 
BRANCH  13  14
ATOM     14  C   UNL     1     -23.001 -15.842 -12.916  1.00  0.00     0.053 C 
BRANCH  14  15
ATOM     15  C   UNL     1     -23.346 -14.624 -12.114  1.00  0.00     0.041 C 
ATOM     16  O   UNL     1     -24.486 -14.101 -12.214  1.00  0.00    -0.550 OA
ATOM     17  O   UNL     1     -22.417 -14.086 -11.234  1.00  0.00    -0.550 OA
ENDBRANCH  14  15
ENDBRANCH  13  14
ENDBRANCH  12  13
ENDBRANCH  11  12
ENDBRANCH  10  11
ENDBRANCH   9  10
ENDBRANCH   8   9
ENDBRANCH   7   8
ENDBRANCH   6   7
ENDBRANCH   5   6
ENDBRANCH   4   5
ENDBRANCH   3   4
ENDBRANCH   2   3
ENDBRANCH   1   2
BRANCH   1  18
ATOM     18  C   UNL     1     -15.895 -12.993 -23.467  1.00  0.00     0.000 C 
BRANCH  18  19
ATOM     19  C   UNL     1     -14.776 -12.207 -22.767  1.00  0.00     0.000 C 
BRANCH  19  20
ATOM     20  C   UNL     1     -13.666 -11.769 -23.747  1.00  0.00     0.000 C 
BRANCH  20  21
ATOM     21  C   UNL     1     -13.779 -10.292 -24.168  1.00  0.00     0.000 C 
BRANCH  21  22
ATOM     22  C   UNL     1     -14.747  -9.463 -23.300  1.00  0.00     0.000 C 
BRANCH  22  23
ATOM     23  C   UNL     1     -15.294  -8.227 -24.034  1.00  0.00     0.000 C 
BRANCH  23  24
ATOM     24  C   UNL     1     -14.835  -6.905 -23.394  1.00  0.00    -0.000 C 
BRANCH  24  25
ATOM     25  C   UNL     1     -13.819  -7.059 -22.244  1.00  0.00    -0.000 C 
BRANCH  25  26
ATOM     26  C   UNL     1     -14.161  -6.282 -20.957  1.00  0.00    -0.000 C 
BRANCH  26  27
ATOM     27  C   UNL     1     -13.479  -6.804 -19.677  1.00  0.00    -0.000 C 
BRANCH  27  28
ATOM     28  C   UNL     1     -14.442  -7.378 -18.617  1.00  0.00    -0.000 C 
BRANCH  28  29
ATOM     29  C   UNL     1     -13.896  -8.586 -17.832  1.00  0.00    -0.000 C 
BRANCH  29  30
ATOM     30  C   UNL     1     -12.485  -9.049 -18.247  1.00  0.00    -0.000 C 
BRANCH  30  31
ATOM     31  C   UNL     1     -11.949  -8.418 -19.544  1.00  0.00    -0.003 C 
ATOM     32  C   UNL     1     -12.019  -9.363 -20.743  1.00  0.00     0.004 C 
ENDBRANCH  30  31
ENDBRANCH  29  30
ENDBRANCH  28  29
ENDBRANCH  27  28
ENDBRANCH  26  27
ENDBRANCH  25  26
ENDBRANCH  24  25
ENDBRANCH  23  24
ENDBRANCH  22  23
ENDBRANCH  21  22
ENDBRANCH  20  21
ENDBRANCH  19  20
ENDBRANCH  18  19
ENDBRANCH   1  18
TORSDOF 28
ENDMDL
MODEL 5
REMARK VINA RESULT:    29.919      5.489     14.022
REMARK INTER + INTRA:          77.405
REMARK INTER:                  77.972
REMARK INTRA:                  -0.567
REMARK UNBOUND:                -1.488
REMARK SMILES CCCCCCCCCCCCCCCCCCCCCCCCCCCCCC(=O)[O-]
REMARK SMILES IDX 16 1 17 2 18 3 19 4 20 5 21 6 22 7 23 8 24 9 25 10 26 11
REMARK SMILES IDX 27 12 28 13 29 14 30 15 31 16 32 17 15 18 14 19 13 20 12 21
REMARK SMILES IDX 11 22 10 23 9 24 8 25 7 26 6 27 5 28 4 29 3 30 2 31 1 32
REMARK H PARENT
REMARK Flexibility Score: inf
ROOT
ATOM      1  C   UNL     1     -16.068 -13.183 -22.084  1.00  0.00     0.000 C 
ENDROOT
BRANCH   1   2
ATOM      2  C   UNL     1     -15.837 -13.267 -23.604  1.00  0.00     0.000 C 
BRANCH   2   3
ATOM      3  C   UNL     1     -14.623 -12.466 -24.115  1.00  0.00     0.000 C 
BRANCH   3   4
ATOM      4  C   UNL     1     -14.108 -11.351 -23.182  1.00  0.00     0.000 C 
BRANCH   4   5
ATOM      5  C   UNL     1     -14.167  -9.923 -23.756  1.00  0.00     0.000 C 
BRANCH   5   6
ATOM      6  C   UNL     1     -15.393  -9.133 -23.267  1.00  0.00     0.000 C 
BRANCH   6   7
ATOM      7  C   UNL     1     -15.353  -7.650 -23.682  1.00  0.00     0.000 C 
BRANCH   7   8
ATOM      8  C   UNL     1     -13.965  -6.983 -23.603  1.00  0.00     0.000 C 
BRANCH   8   9
ATOM      9  C   UNL     1     -13.197  -7.227 -22.292  1.00  0.00     0.000 C 
BRANCH   9  10
ATOM     10  C   UNL     1     -11.992  -8.162 -22.470  1.00  0.00     0.000 C 
BRANCH  10  11
ATOM     11  C   UNL     1     -11.831  -9.087 -21.259  1.00  0.00     0.000 C 
BRANCH  11  12
ATOM     12  C   UNL     1     -12.750  -8.652 -20.106  1.00  0.00     0.000 C 
BRANCH  12  13
ATOM     13  C   UNL     1     -12.051  -7.710 -19.107  1.00  0.00     0.006 C 
BRANCH  13  14
ATOM     14  C   UNL     1     -12.299  -8.054 -17.630  1.00  0.00     0.053 C 
BRANCH  14  15
ATOM     15  C   UNL     1     -13.468  -8.975 -17.455  1.00  0.00     0.041 C 
ATOM     16  O   UNL     1     -13.289 -10.217 -17.364  1.00  0.00    -0.550 OA
ATOM     17  O   UNL     1     -14.753  -8.456 -17.363  1.00  0.00    -0.550 OA
ENDBRANCH  14  15
ENDBRANCH  13  14
ENDBRANCH  12  13
ENDBRANCH  11  12
ENDBRANCH  10  11
ENDBRANCH   9  10
ENDBRANCH   8   9
ENDBRANCH   7   8
ENDBRANCH   6   7
ENDBRANCH   5   6
ENDBRANCH   4   5
ENDBRANCH   3   4
ENDBRANCH   2   3
ENDBRANCH   1   2
BRANCH   1  18
ATOM     18  C   UNL     1     -16.530 -14.511 -21.458  1.00  0.00     0.000 C 
BRANCH  18  19
ATOM     19  C   UNL     1     -16.178 -14.583 -19.964  1.00  0.00     0.000 C 
BRANCH  19  20
ATOM     20  C   UNL     1     -16.506 -15.962 -19.351  1.00  0.00     0.000 C 
BRANCH  20  21
ATOM     21  C   UNL     1     -17.494 -15.881 -18.172  1.00  0.00     0.000 C 
BRANCH  21  22
ATOM     22  C   UNL     1     -16.883 -15.306 -16.878  1.00  0.00     0.000 C 
BRANCH  22  23
ATOM     23  C   UNL     1     -17.337 -16.063 -15.620  1.00  0.00     0.000 C 
BRANCH  23  24
ATOM     24  C   UNL     1     -18.045 -17.390 -15.948  1.00  0.00    -0.000 C 
BRANCH  24  25
ATOM     25  C   UNL     1     -19.459 -17.241 -16.545  1.00  0.00    -0.000 C 
BRANCH  25  26
ATOM     26  C   UNL     1     -20.503 -18.247 -16.021  1.00  0.00    -0.000 C 
BRANCH  26  27
ATOM     27  C   UNL     1     -21.282 -17.793 -14.771  1.00  0.00    -0.000 C 
BRANCH  27  28
ATOM     28  C   UNL     1     -22.633 -17.107 -15.064  1.00  0.00    -0.000 C 
BRANCH  28  29
ATOM     29  C   UNL     1     -22.700 -15.617 -14.675  1.00  0.00    -0.000 C 
BRANCH  29  30
ATOM     30  C   UNL     1     -24.057 -15.152 -14.109  1.00  0.00    -0.000 C 
BRANCH  30  31
ATOM     31  C   UNL     1     -24.203 -15.283 -12.583  1.00  0.00    -0.003 C 
ATOM     32  C   UNL     1     -23.453 -14.195 -11.814  1.00  0.00     0.004 C 
ENDBRANCH  30  31
ENDBRANCH  29  30
ENDBRANCH  28  29
ENDBRANCH  27  28
ENDBRANCH  26  27
ENDBRANCH  25  26
ENDBRANCH  24  25
ENDBRANCH  23  24
ENDBRANCH  22  23
ENDBRANCH  21  22
ENDBRANCH  20  21
ENDBRANCH  19  20
ENDBRANCH  18  19
ENDBRANCH   1  18
TORSDOF 28
ENDMDL
MODEL 6
REMARK VINA RESULT:    29.922      5.846     14.013
REMARK INTER + INTRA:          77.414
REMARK INTER:                  78.899
REMARK INTRA:                  -1.486
REMARK UNBOUND:                -1.488
REMARK SMILES CCCCCCCCCCCCCCCCCCCCCCCCCCCCCC(=O)[O-]
REMARK SMILES IDX 16 1 17 2 18 3 19 4 20 5 21 6 22 7 23 8 24 9 25 10 26 11
REMARK SMILES IDX 27 12 28 13 29 14 30 15 31 16 32 17 15 18 14 19 13 20 12 21
REMARK SMILES IDX 11 22 10 23 9 24 8 25 7 26 6 27 5 28 4 29 3 30 2 31 1 32
REMARK H PARENT
REMARK Flexibility Score: inf
ROOT
ATOM      1  C   UNL     1     -16.099 -14.004 -21.336  1.00  0.00     0.000 C 
ENDROOT
BRANCH   1   2
ATOM      2  C   UNL     1     -16.771 -13.427 -22.596  1.00  0.00     0.000 C 
BRANCH   2   3
ATOM      3  C   UNL     1     -15.802 -13.100 -23.750  1.00  0.00     0.000 C 
BRANCH   3   4
ATOM      4  C   UNL     1     -14.626 -12.166 -23.400  1.00  0.00     0.000 C 
BRANCH   4   5
ATOM      5  C   UNL     1     -13.960 -11.460 -24.595  1.00  0.00     0.000 C 
BRANCH   5   6
ATOM      6  C   UNL     1     -13.377 -10.084 -24.226  1.00  0.00     0.000 C 
BRANCH   6   7
ATOM      7  C   UNL     1     -14.298  -9.276 -23.293  1.00  0.00     0.000 C 
BRANCH   7   8
ATOM      8  C   UNL     1     -13.588  -8.217 -22.424  1.00  0.00     0.000 C 
BRANCH   8   9
ATOM      9  C   UNL     1     -12.280  -8.686 -21.763  1.00  0.00     0.000 C 
BRANCH   9  10
ATOM     10  C   UNL     1     -12.116  -8.167 -20.327  1.00  0.00     0.000 C 
BRANCH  10  11
ATOM     11  C   UNL     1     -12.352  -9.287 -19.308  1.00  0.00     0.000 C 
BRANCH  11  12
ATOM     12  C   UNL     1     -12.913  -8.726 -17.991  1.00  0.00     0.000 C 
BRANCH  12  13
ATOM     13  C   UNL     1     -13.725  -7.433 -18.190  1.00  0.00     0.006 C 
BRANCH  13  14
ATOM     14  C   UNL     1     -15.119  -7.647 -18.801  1.00  0.00     0.053 C 
BRANCH  14  15
ATOM     15  C   UNL     1     -15.390  -6.698 -19.929  1.00  0.00     0.041 C 
ATOM     16  O   UNL     1     -14.502  -5.889 -20.305  1.00  0.00    -0.550 OA
ATOM     17  O   UNL     1     -16.614  -6.728 -20.583  1.00  0.00    -0.550 OA
ENDBRANCH  14  15
ENDBRANCH  13  14
ENDBRANCH  12  13
ENDBRANCH  11  12
ENDBRANCH  10  11
ENDBRANCH   9  10
ENDBRANCH   8   9
ENDBRANCH   7   8
ENDBRANCH   6   7
ENDBRANCH   5   6
ENDBRANCH   4   5
ENDBRANCH   3   4
ENDBRANCH   2   3
ENDBRANCH   1   2
BRANCH   1  18
ATOM     18  C   UNL     1     -17.081 -14.711 -20.385  1.00  0.00     0.000 C 
BRANCH  18  19
ATOM     19  C   UNL     1     -16.347 -15.645 -19.410  1.00  0.00     0.000 C 
BRANCH  19  20
ATOM     20  C   UNL     1     -17.280 -16.187 -18.305  1.00  0.00     0.000 C 
BRANCH  20  21
ATOM     21  C   UNL     1     -17.116 -15.451 -16.961  1.00  0.00     0.000 C 
BRANCH  21  22
ATOM     22  C   UNL     1     -17.156 -16.377 -15.729  1.00  0.00     0.000 C 
BRANCH  22  23
ATOM     23  C   UNL     1     -18.586 -16.786 -15.339  1.00  0.00     0.000 C 
BRANCH  23  24
ATOM     24  C   UNL     1     -19.209 -17.785 -16.330  1.00  0.00    -0.000 C 
BRANCH  24  25
ATOM     25  C   UNL     1     -20.750 -17.793 -16.361  1.00  0.00    -0.000 C 
BRANCH  25  26
ATOM     26  C   UNL     1     -21.430 -18.335 -15.088  1.00  0.00    -0.000 C 
BRANCH  26  27
ATOM     27  C   UNL     1     -22.158 -17.278 -14.233  1.00  0.00    -0.000 C 
BRANCH  27  28
ATOM     28  C   UNL     1     -22.300 -15.894 -14.898  1.00  0.00    -0.000 C 
BRANCH  28  29
ATOM     29  C   UNL     1     -23.555 -15.102 -14.482  1.00  0.00    -0.000 C 
BRANCH  29  30
ATOM     30  C   UNL     1     -24.070 -15.396 -13.059  1.00  0.00    -0.000 C 
BRANCH  30  31
ATOM     31  C   UNL     1     -23.781 -14.295 -12.023  1.00  0.00    -0.003 C 
ATOM     32  C   UNL     1     -22.469 -14.512 -11.269  1.00  0.00     0.004 C 
ENDBRANCH  30  31
ENDBRANCH  29  30
ENDBRANCH  28  29
ENDBRANCH  27  28
ENDBRANCH  26  27
ENDBRANCH  25  26
ENDBRANCH  24  25
ENDBRANCH  23  24
ENDBRANCH  22  23
ENDBRANCH  21  22
ENDBRANCH  20  21
ENDBRANCH  19  20
ENDBRANCH  18  19
ENDBRANCH   1  18
TORSDOF 28
ENDMDL
MODEL 7
REMARK VINA RESULT:    30.444      6.778     14.742
REMARK INTER + INTRA:          78.788
REMARK INTER:                  80.192
REMARK INTRA:                  -1.404
REMARK UNBOUND:                -1.488
REMARK SMILES CCCCCCCCCCCCCCCCCCCCCCCCCCCCCC(=O)[O-]
REMARK SMILES IDX 16 1 17 2 18 3 19 4 20 5 21 6 22 7 23 8 24 9 25 10 26 11
REMARK SMILES IDX 27 12 28 13 29 14 30 15 31 16 32 17 15 18 14 19 13 20 12 21
REMARK SMILES IDX 11 22 10 23 9 24 8 25 7 26 6 27 5 28 4 29 3 30 2 31 1 32
REMARK H PARENT
REMARK Flexibility Score: inf
ROOT
ATOM      1  C   UNL     1     -18.087 -15.569 -17.139  1.00  0.00     0.000 C 
ENDROOT
BRANCH   1   2
ATOM      2  C   UNL     1     -17.015 -15.872 -18.202  1.00  0.00     0.000 C 
BRANCH   2   3
ATOM      3  C   UNL     1     -17.275 -15.228 -19.578  1.00  0.00     0.000 C 
BRANCH   3   4
ATOM      4  C   UNL     1     -16.025 -14.784 -20.364  1.00  0.00     0.000 C 
BRANCH   4   5
ATOM      5  C   UNL     1     -16.279 -14.313 -21.808  1.00  0.00     0.000 C 
BRANCH   5   6
ATOM      6  C   UNL     1     -15.974 -12.818 -22.010  1.00  0.00     0.000 C 
BRANCH   6   7
ATOM      7  C   UNL     1     -14.628 -12.573 -22.716  1.00  0.00     0.000 C 
BRANCH   7   8
ATOM      8  C   UNL     1     -14.648 -11.487 -23.812  1.00  0.00     0.000 C 
BRANCH   8   9
ATOM      9  C   UNL     1     -13.944 -10.171 -23.439  1.00  0.00     0.000 C 
BRANCH   9  10
ATOM     10  C   UNL     1     -14.910  -8.980 -23.352  1.00  0.00     0.000 C 
BRANCH  10  11
ATOM     11  C   UNL     1     -14.152  -7.678 -23.067  1.00  0.00     0.000 C 
BRANCH  11  12
ATOM     12  C   UNL     1     -12.906  -7.943 -22.205  1.00  0.00     0.000 C 
BRANCH  12  13
ATOM     13  C   UNL     1     -13.136  -7.640 -20.713  1.00  0.00     0.006 C 
BRANCH  13  14
ATOM     14  C   UNL     1     -12.257  -8.461 -19.756  1.00  0.00     0.053 C 
BRANCH  14  15
ATOM     15  C   UNL     1     -12.938  -8.717 -18.446  1.00  0.00     0.041 C 
ATOM     16  O   UNL     1     -12.832  -9.838 -17.885  1.00  0.00    -0.550 OA
ATOM     17  O   UNL     1     -13.664  -7.706 -17.831  1.00  0.00    -0.550 OA
ENDBRANCH  14  15
ENDBRANCH  13  14
ENDBRANCH  12  13
ENDBRANCH  11  12
ENDBRANCH  10  11
ENDBRANCH   9  10
ENDBRANCH   8   9
ENDBRANCH   7   8
ENDBRANCH   6   7
ENDBRANCH   5   6
ENDBRANCH   4   5
ENDBRANCH   3   4
ENDBRANCH   2   3
ENDBRANCH   1   2
BRANCH   1  18
ATOM     18  C   UNL     1     -17.793 -16.208 -15.770  1.00  0.00     0.000 C 
BRANCH  18  19
ATOM     19  C   UNL     1     -16.472 -16.993 -15.786  1.00  0.00     0.000 C 
BRANCH  19  20
ATOM     20  C   UNL     1     -15.861 -17.141 -14.375  1.00  0.00     0.000 C 
BRANCH  20  21
ATOM     21  C   UNL     1     -16.006 -15.869 -13.518  1.00  0.00     0.000 C 
BRANCH  21  22
ATOM     22  C   UNL     1     -14.702 -15.426 -12.825  1.00  0.00     0.000 C 
BRANCH  22  23
ATOM     23  C   UNL     1     -14.855 -15.289 -11.301  1.00  0.00     0.000 C 
BRANCH  23  24
ATOM     24  C   UNL     1     -16.307 -15.489 -10.831  1.00  0.00    -0.000 C 
BRANCH  24  25
ATOM     25  C   UNL     1     -16.455 -16.163  -9.451  1.00  0.00    -0.000 C 
BRANCH  25  26
ATOM     26  C   UNL     1     -15.140 -16.664  -8.821  1.00  0.00    -0.000 C 
BRANCH  26  27
ATOM     27  C   UNL     1     -14.655 -18.039  -9.323  1.00  0.00    -0.000 C 
BRANCH  27  28
ATOM     28  C   UNL     1     -15.431 -19.246  -8.757  1.00  0.00    -0.000 C 
BRANCH  28  29
ATOM     29  C   UNL     1     -16.249 -18.951  -7.484  1.00  0.00    -0.000 C 
BRANCH  29  30
ATOM     30  C   UNL     1     -16.018 -19.934  -6.319  1.00  0.00    -0.000 C 
BRANCH  30  31
ATOM     31  C   UNL     1     -17.194 -20.060  -5.334  1.00  0.00    -0.003 C 
ATOM     32  C   UNL     1     -18.447 -19.318  -5.799  1.00  0.00     0.004 C 
ENDBRANCH  30  31
ENDBRANCH  29  30
ENDBRANCH  28  29
ENDBRANCH  27  28
ENDBRANCH  26  27
ENDBRANCH  25  26
ENDBRANCH  24  25
ENDBRANCH  23  24
ENDBRANCH  22  23
ENDBRANCH  21  22
ENDBRANCH  20  21
ENDBRANCH  19  20
ENDBRANCH  18  19
ENDBRANCH   1  18
TORSDOF 28
ENDMDL
MODEL 8
REMARK VINA RESULT:    30.732      6.973     14.585
REMARK INTER + INTRA:          79.548
REMARK INTER:                  79.135
REMARK INTRA:                   0.413
REMARK UNBOUND:                -1.488
REMARK SMILES CCCCCCCCCCCCCCCCCCCCCCCCCCCCCC(=O)[O-]
REMARK SMILES IDX 16 1 17 2 18 3 19 4 20 5 21 6 22 7 23 8 24 9 25 10 26 11
REMARK SMILES IDX 27 12 28 13 29 14 30 15 31 16 32 17 15 18 14 19 13 20 12 21
REMARK SMILES IDX 11 22 10 23 9 24 8 25 7 26 6 27 5 28 4 29 3 30 2 31 1 32
REMARK H PARENT
REMARK Flexibility Score: inf
ROOT
ATOM      1  C   UNL     1     -16.036 -14.526 -20.250  1.00  0.00     0.000 C 
ENDROOT
BRANCH   1   2
ATOM      2  C   UNL     1     -16.587 -14.041 -21.604  1.00  0.00     0.000 C 
BRANCH   2   3
ATOM      3  C   UNL     1     -15.813 -12.862 -22.227  1.00  0.00     0.000 C 
BRANCH   3   4
ATOM      4  C   UNL     1     -15.428 -13.016 -23.713  1.00  0.00     0.000 C 
BRANCH   4   5
ATOM      5  C   UNL     1     -14.449 -11.960 -24.259  1.00  0.00     0.000 C 
BRANCH   5   6
ATOM      6  C   UNL     1     -13.925 -11.011 -23.167  1.00  0.00     0.000 C 
BRANCH   6   7
ATOM      7  C   UNL     1     -13.863  -9.544 -23.629  1.00  0.00     0.000 C 
BRANCH   7   8
ATOM      8  C   UNL     1     -15.088  -8.684 -23.256  1.00  0.00     0.000 C 
BRANCH   8   9
ATOM      9  C   UNL     1     -15.283  -7.421 -24.113  1.00  0.00     0.000 C 
BRANCH   9  10
ATOM     10  C   UNL     1     -14.098  -6.448 -24.023  1.00  0.00     0.000 C 
BRANCH  10  11
ATOM     11  C   UNL     1     -13.790  -6.093 -22.564  1.00  0.00     0.000 C 
BRANCH  11  12
ATOM     12  C   UNL     1     -13.715  -7.357 -21.692  1.00  0.00     0.000 C 
BRANCH  12  13
ATOM     13  C   UNL     1     -13.112  -7.089 -20.300  1.00  0.00     0.006 C 
BRANCH  13  14
ATOM     14  C   UNL     1     -12.381  -8.290 -19.682  1.00  0.00     0.053 C 
BRANCH  14  15
ATOM     15  C   UNL     1     -13.021  -8.743 -18.406  1.00  0.00     0.041 C 
ATOM     16  O   UNL     1     -13.867  -8.014 -17.827  1.00  0.00    -0.550 OA
ATOM     17  O   UNL     1     -12.704  -9.985 -17.872  1.00  0.00    -0.550 OA
ENDBRANCH  14  15
ENDBRANCH  13  14
ENDBRANCH  12  13
ENDBRANCH  11  12
ENDBRANCH  10  11
ENDBRANCH   9  10
ENDBRANCH   8   9
ENDBRANCH   7   8
ENDBRANCH   6   7
ENDBRANCH   5   6
ENDBRANCH   4   5
ENDBRANCH   3   4
ENDBRANCH   2   3
ENDBRANCH   1   2
BRANCH   1  18
ATOM     18  C   UNL     1     -16.869 -15.654 -19.616  1.00  0.00     0.000 C 
BRANCH  18  19
ATOM     19  C   UNL     1     -16.787 -15.623 -18.082  1.00  0.00     0.000 C 
BRANCH  19  20
ATOM     20  C   UNL     1     -18.115 -16.044 -17.416  1.00  0.00     0.000 C 
BRANCH  20  21
ATOM     21  C   UNL     1     -18.085 -15.927 -15.880  1.00  0.00     0.000 C 
BRANCH  21  22
ATOM     22  C   UNL     1     -17.492 -17.159 -15.167  1.00  0.00     0.000 C 
BRANCH  22  23
ATOM     23  C   UNL     1     -16.011 -16.976 -14.796  1.00  0.00     0.000 C 
BRANCH  23  24
ATOM     24  C   UNL     1     -15.809 -15.991 -13.631  1.00  0.00    -0.000 C 
BRANCH  24  25
ATOM     25  C   UNL     1     -15.986 -16.601 -12.226  1.00  0.00    -0.000 C 
BRANCH  25  26
ATOM     26  C   UNL     1     -16.454 -15.617 -11.137  1.00  0.00    -0.000 C 
BRANCH  26  27
ATOM     27  C   UNL     1     -15.722 -15.738  -9.785  1.00  0.00    -0.000 C 
BRANCH  27  28
ATOM     28  C   UNL     1     -15.438 -17.185  -9.331  1.00  0.00    -0.000 C 
BRANCH  28  29
ATOM     29  C   UNL     1     -14.546 -17.307  -8.080  1.00  0.00    -0.000 C 
BRANCH  29  30
ATOM     30  C   UNL     1     -15.241 -17.901  -6.838  1.00  0.00    -0.000 C 
BRANCH  30  31
ATOM     31  C   UNL     1     -15.948 -19.247  -7.072  1.00  0.00    -0.003 C 
ATOM     32  C   UNL     1     -16.759 -19.716  -5.864  1.00  0.00     0.004 C 
ENDBRANCH  30  31
ENDBRANCH  29  30
ENDBRANCH  28  29
ENDBRANCH  27  28
ENDBRANCH  26  27
ENDBRANCH  25  26
ENDBRANCH  24  25
ENDBRANCH  23  24
ENDBRANCH  22  23
ENDBRANCH  21  22
ENDBRANCH  20  21
ENDBRANCH  19  20
ENDBRANCH  18  19
ENDBRANCH   1  18
TORSDOF 28
ENDMDL
