MODEL 1
REMARK VINA RESULT:    -5.910      0.000      0.000
REMARK INTER + INTRA:          -7.404
REMARK INTER:                  -7.120
REMARK INTRA:                  -0.284
REMARK UNBOUND:                -0.284
REMARK SMILES O=c1c(O)c(-c2ccc(O)c(O)c2)oc2cc(O)cc(O)c12
REMARK SMILES IDX 5 1 3 2 2 3 1 4 22 5 20 6 19 7 17 8 16 9 15 10 14 11 6 12
REMARK SMILES IDX 7 13 8 14 9 15 13 16 11 17 10 18 12 20 4 22 21 24 18 26
REMARK H PARENT 10 19 12 21 4 23 21 25 18 27
REMARK Flexibility Score: inf
ROOT
ATOM      1  C   UNL     1      36.036  30.409  45.083  1.00  0.00     0.180 A 
ATOM      2  C   UNL     1      35.313  31.617  45.091  1.00  0.00     0.208 A 
ATOM      3  C   UNL     1      34.166  31.727  44.291  1.00  0.00     0.238 A 
ATOM      4  O   UNL     1      33.505  32.801  44.299  1.00  0.00    -0.285 OA
ATOM      5  C   UNL     1      33.773  30.640  43.483  1.00  0.00     0.111 A 
ATOM      6  C   UNL     1      32.632  30.671  42.645  1.00  0.00     0.134 A 
ATOM      7  C   UNL     1      32.312  29.550  41.864  1.00  0.00     0.093 A 
ATOM      8  C   UNL     1      33.109  28.403  41.904  1.00  0.00     0.123 A 
ATOM      9  C   UNL     1      34.236  28.367  42.730  1.00  0.00     0.094 A 
ATOM     10  C   UNL     1      34.571  29.473  43.518  1.00  0.00     0.146 A 
ATOM     11  O   UNL     1      35.644  29.410  44.298  1.00  0.00    -0.452 OA
ENDROOT
BRANCH   1  12
ATOM     12  C   UNL     1      37.245  30.209  45.914  1.00  0.00     0.025 A 
ATOM     13  C   UNL     1      37.142  29.513  47.129  1.00  0.00     0.016 A 
ATOM     14  C   UNL     1      38.266  29.330  47.938  1.00  0.00     0.051 A 
ATOM     15  C   UNL     1      39.506  29.854  47.553  1.00  0.00     0.157 A 
ATOM     16  C   UNL     1      38.489  30.751  45.540  1.00  0.00     0.062 A 
ATOM     17  C   UNL     1      39.617  30.570  46.354  1.00  0.00     0.158 A 
BRANCH  15  18
ATOM     18  O   UNL     1      40.630  29.674  48.357  1.00  0.00    -0.504 OA
ATOM     19  H   UNL     1      40.796  28.802  48.847  1.00  0.00     0.293 HD
ENDBRANCH  15  18
BRANCH  17  20
ATOM     20  O   UNL     1      40.850  31.102  45.979  1.00  0.00    -0.504 OA
ATOM     21  H   UNL     1      41.666  30.516  45.860  1.00  0.00     0.293 HD
ENDBRANCH  17  20
ENDBRANCH   1  12
BRANCH   2  22
ATOM     22  O   UNL     1      35.752  32.696  45.863  1.00  0.00    -0.502 OA
ATOM     23  H   UNL     1      35.300  32.963  46.730  1.00  0.00     0.293 HD
ENDBRANCH   2  22
BRANCH   6  24
ATOM     24  O   UNL     1      31.818  31.802  42.583  1.00  0.00    -0.507 OA
ATOM     25  H   UNL     1      31.647  32.382  43.396  1.00  0.00     0.293 HD
ENDBRANCH   6  24
BRANCH   8  26
ATOM     26  O   UNL     1      32.769  27.304  41.118  1.00  0.00    -0.508 OA
ATOM     27  H   UNL     1      32.742  26.367  41.501  1.00  0.00     0.293 HD
ENDBRANCH   8  26
TORSDOF 6
ENDMDL
MODEL 2
REMARK VINA RESULT:    -5.878      1.291      2.886
REMARK INTER + INTRA:          -7.365
REMARK INTER:                  -7.086
REMARK INTRA:                  -0.279
REMARK UNBOUND:                -0.284
REMARK SMILES O=c1c(O)c(-c2ccc(O)c(O)c2)oc2cc(O)cc(O)c12
REMARK SMILES IDX 5 1 3 2 2 3 1 4 22 5 20 6 19 7 17 8 16 9 15 10 14 11 6 12
REMARK SMILES IDX 7 13 8 14 9 15 13 16 11 17 10 18 12 20 4 22 21 24 18 26
REMARK H PARENT 10 19 12 21 4 23 21 25 18 27
REMARK Flexibility Score: inf
ROOT
ATOM      1  C   UNL     1      36.648  29.698  45.052  1.00  0.00     0.180 A 
ATOM      2  C   UNL     1      36.671  28.438  44.423  1.00  0.00     0.208 A 
ATOM      3  C   UNL     1      35.645  28.111  43.522  1.00  0.00     0.238 A 
ATOM      4  O   UNL     1      35.661  26.990  42.945  1.00  0.00    -0.285 OA
ATOM      5  C   UNL     1      34.608  29.036  43.281  1.00  0.00     0.111 A 
ATOM      6  C   UNL     1      33.536  28.783  42.391  1.00  0.00     0.134 A 
ATOM      7  C   UNL     1      32.537  29.751  42.212  1.00  0.00     0.093 A 
ATOM      8  C   UNL     1      32.588  30.964  42.904  1.00  0.00     0.123 A 
ATOM      9  C   UNL     1      33.645  31.220  43.783  1.00  0.00     0.094 A 
ATOM     10  C   UNL     1      34.652  30.268  43.974  1.00  0.00     0.146 A 
ATOM     11  O   UNL     1      35.647  30.539  44.811  1.00  0.00    -0.452 OA
ENDROOT
BRANCH   1  12
ATOM     12  C   UNL     1      37.704  30.124  45.999  1.00  0.00     0.025 A 
ATOM     13  C   UNL     1      37.414  30.194  47.371  1.00  0.00     0.016 A 
ATOM     14  C   UNL     1      38.389  30.613  48.280  1.00  0.00     0.051 A 
ATOM     15  C   UNL     1      39.661  30.983  47.829  1.00  0.00     0.157 A 
ATOM     16  C   UNL     1      38.978  30.516  45.549  1.00  0.00     0.062 A 
ATOM     17  C   UNL     1      39.955  30.939  46.461  1.00  0.00     0.158 A 
BRANCH  15  18
ATOM     18  O   UNL     1      40.637  31.400  48.733  1.00  0.00    -0.504 OA
ATOM     19  H   UNL     1      41.541  30.946  48.783  1.00  0.00     0.293 HD
ENDBRANCH  15  18
BRANCH  17  20
ATOM     20  O   UNL     1      41.219  31.321  46.013  1.00  0.00    -0.504 OA
ATOM     21  H   UNL     1      41.952  31.588  46.659  1.00  0.00     0.293 HD
ENDBRANCH  17  20
ENDBRANCH   1  12
BRANCH   2  22
ATOM     22  O   UNL     1      37.683  27.521  44.717  1.00  0.00    -0.502 OA
ATOM     23  H   UNL     1      37.489  26.603  45.099  1.00  0.00     0.293 HD
ENDBRANCH   2  22
BRANCH   6  24
ATOM     24  O   UNL     1      33.456  27.581  41.688  1.00  0.00    -0.507 OA
ATOM     25  H   UNL     1      32.626  27.321  41.168  1.00  0.00     0.293 HD
ENDBRANCH   6  24
BRANCH   8  26
ATOM     26  O   UNL     1      31.583  31.908  42.708  1.00  0.00    -0.508 OA
ATOM     27  H   UNL     1      31.305  32.202  41.780  1.00  0.00     0.293 HD
ENDBRANCH   8  26
TORSDOF 6
ENDMDL
MODEL 3
REMARK VINA RESULT:    -5.710      1.624      2.231
REMARK INTER + INTRA:          -7.162
REMARK INTER:                  -6.873
REMARK INTRA:                  -0.289
REMARK UNBOUND:                -0.284
REMARK SMILES O=c1c(O)c(-c2ccc(O)c(O)c2)oc2cc(O)cc(O)c12
REMARK SMILES IDX 5 1 3 2 2 3 1 4 22 5 20 6 19 7 17 8 16 9 15 10 14 11 6 12
REMARK SMILES IDX 7 13 8 14 9 15 13 16 11 17 10 18 12 20 4 22 21 24 18 26
REMARK H PARENT 10 19 12 21 4 23 21 25 18 27
REMARK Flexibility Score: inf
ROOT
ATOM      1  C   UNL     1      36.121  28.908  44.528  1.00  0.00     0.180 A 
ATOM      2  C   UNL     1      34.915  29.631  44.460  1.00  0.00     0.208 A 
ATOM      3  C   UNL     1      33.987  29.311  43.457  1.00  0.00     0.238 A 
ATOM      4  O   UNL     1      32.900  29.946  43.394  1.00  0.00    -0.285 OA
ATOM      5  C   UNL     1      34.287  28.292  42.530  1.00  0.00     0.111 A 
ATOM      6  C   UNL     1      33.409  27.911  41.487  1.00  0.00     0.134 A 
ATOM      7  C   UNL     1      33.784  26.892  40.599  1.00  0.00     0.093 A 
ATOM      8  C   UNL     1      35.017  26.249  40.732  1.00  0.00     0.123 A 
ATOM      9  C   UNL     1      35.888  26.620  41.760  1.00  0.00     0.094 A 
ATOM     10  C   UNL     1      35.532  27.633  42.657  1.00  0.00     0.146 A 
ATOM     11  O   UNL     1      36.376  27.963  43.628  1.00  0.00    -0.452 OA
ENDROOT
BRANCH   1  12
ATOM     12  C   UNL     1      37.141  29.173  45.568  1.00  0.00     0.025 A 
ATOM     13  C   UNL     1      36.947  28.681  46.868  1.00  0.00     0.016 A 
ATOM     14  C   UNL     1      37.887  28.936  47.870  1.00  0.00     0.051 A 
ATOM     15  C   UNL     1      39.025  29.702  47.591  1.00  0.00     0.157 A 
ATOM     16  C   UNL     1      38.277  29.959  45.297  1.00  0.00     0.062 A 
ATOM     17  C   UNL     1      39.219  30.218  46.303  1.00  0.00     0.158 A 
BRANCH  15  18
ATOM     18  O   UNL     1      39.966  29.959  48.587  1.00  0.00    -0.504 OA
ATOM     19  H   UNL     1      40.959  29.965  48.388  1.00  0.00     0.293 HD
ENDBRANCH  15  18
BRANCH  17  20
ATOM     20  O   UNL     1      40.347  30.990  46.031  1.00  0.00    -0.504 OA
ATOM     21  H   UNL     1      40.399  31.965  46.300  1.00  0.00     0.293 HD
ENDBRANCH  17  20
ENDBRANCH   1  12
BRANCH   2  22
ATOM     22  O   UNL     1      34.664  30.670  45.361  1.00  0.00    -0.502 OA
ATOM     23  H   UNL     1      34.824  31.643  45.125  1.00  0.00     0.293 HD
ENDBRANCH   2  22
BRANCH   6  24
ATOM     24  O   UNL     1      32.171  28.535  41.327  1.00  0.00    -0.507 OA
ATOM     25  H   UNL     1      31.867  29.281  41.941  1.00  0.00     0.293 HD
ENDBRANCH   6  24
BRANCH   8  26
ATOM     26  O   UNL     1      35.366  25.241  39.836  1.00  0.00    -0.508 OA
ATOM     27  H   UNL     1      35.224  25.346  38.839  1.00  0.00     0.293 HD
ENDBRANCH   8  26
TORSDOF 6
ENDMDL
MODEL 4
REMARK VINA RESULT:    -5.691      3.111      5.264
REMARK INTER + INTRA:          -7.139
REMARK INTER:                  -6.812
REMARK INTRA:                  -0.327
REMARK UNBOUND:                -0.284
REMARK SMILES O=c1c(O)c(-c2ccc(O)c(O)c2)oc2cc(O)cc(O)c12
REMARK SMILES IDX 5 1 3 2 2 3 1 4 22 5 20 6 19 7 17 8 16 9 15 10 14 11 6 12
REMARK SMILES IDX 7 13 8 14 9 15 13 16 11 17 10 18 12 20 4 22 21 24 18 26
REMARK H PARENT 10 19 12 21 4 23 21 25 18 27
REMARK Flexibility Score: inf
ROOT
ATOM      1  C   UNL     1      39.264  29.984  47.181  1.00  0.00     0.180 A 
ATOM      2  C   UNL     1      39.426  28.786  47.903  1.00  0.00     0.208 A 
ATOM      3  C   UNL     1      38.740  27.638  47.476  1.00  0.00     0.238 A 
ATOM      4  O   UNL     1      38.886  26.558  48.109  1.00  0.00    -0.285 OA
ATOM      5  C   UNL     1      37.892  27.711  46.351  1.00  0.00     0.111 A 
ATOM      6  C   UNL     1      37.162  26.602  45.858  1.00  0.00     0.134 A 
ATOM      7  C   UNL     1      36.332  26.758  44.739  1.00  0.00     0.093 A 
ATOM      8  C   UNL     1      36.216  27.998  44.105  1.00  0.00     0.123 A 
ATOM      9  C   UNL     1      36.934  29.096  44.586  1.00  0.00     0.094 A 
ATOM     10  C   UNL     1      37.769  28.961  45.700  1.00  0.00     0.146 A 
ATOM     11  O   UNL     1      38.445  30.019  46.134  1.00  0.00    -0.452 OA
ENDROOT
BRANCH   1  12
ATOM     12  C   UNL     1      39.968  31.231  47.557  1.00  0.00     0.025 A 
ATOM     13  C   UNL     1      39.293  32.207  48.308  1.00  0.00     0.016 A 
ATOM     14  C   UNL     1      39.931  33.400  48.657  1.00  0.00     0.051 A 
ATOM     15  C   UNL     1      41.247  33.641  48.246  1.00  0.00     0.157 A 
ATOM     16  C   UNL     1      41.283  31.488  47.129  1.00  0.00     0.062 A 
ATOM     17  C   UNL     1      41.923  32.686  47.477  1.00  0.00     0.158 A 
BRANCH  15  18
ATOM     18  O   UNL     1      41.888  34.830  48.592  1.00  0.00    -0.504 OA
ATOM     19  H   UNL     1      42.381  34.928  49.472  1.00  0.00     0.293 HD
ENDBRANCH  15  18
BRANCH  17  20
ATOM     20  O   UNL     1      43.229  32.935  47.058  1.00  0.00    -0.504 OA
ATOM     21  H   UNL     1      43.571  32.608  46.163  1.00  0.00     0.293 HD
ENDBRANCH  17  20
ENDBRANCH   1  12
BRANCH   2  22
ATOM     22  O   UNL     1      40.234  28.753  49.043  1.00  0.00    -0.502 OA
ATOM     23  H   UNL     1      40.262  29.515  49.710  1.00  0.00     0.293 HD
ENDBRANCH   2  22
BRANCH   6  24
ATOM     24  O   UNL     1      37.255  25.353  46.471  1.00  0.00    -0.507 OA
ATOM     25  H   UNL     1      36.798  24.534  46.086  1.00  0.00     0.293 HD
ENDBRANCH   6  24
BRANCH   8  26
ATOM     26  O   UNL     1      35.384  28.126  42.994  1.00  0.00    -0.508 OA
ATOM     27  H   UNL     1      34.559  28.712  43.016  1.00  0.00     0.293 HD
ENDBRANCH   8  26
TORSDOF 6
ENDMDL
MODEL 5
REMARK VINA RESULT:    -5.675      2.351      4.402
REMARK INTER + INTRA:          -7.120
REMARK INTER:                  -6.790
REMARK INTRA:                  -0.330
REMARK UNBOUND:                -0.284
REMARK SMILES O=c1c(O)c(-c2ccc(O)c(O)c2)oc2cc(O)cc(O)c12
REMARK SMILES IDX 5 1 3 2 2 3 1 4 22 5 20 6 19 7 17 8 16 9 15 10 14 11 6 12
REMARK SMILES IDX 7 13 8 14 9 15 13 16 11 17 10 18 12 20 4 22 21 24 18 26
REMARK H PARENT 10 19 12 21 4 23 21 25 18 27
REMARK Flexibility Score: inf
ROOT
ATOM      1  C   UNL     1      39.069  30.950  46.492  1.00  0.00     0.180 A 
ATOM      2  C   UNL     1      38.815  29.567  46.576  1.00  0.00     0.208 A 
ATOM      3  C   UNL     1      37.689  29.043  45.924  1.00  0.00     0.238 A 
ATOM      4  O   UNL     1      37.458  27.805  45.985  1.00  0.00    -0.285 OA
ATOM      5  C   UNL     1      36.827  29.907  45.218  1.00  0.00     0.111 A 
ATOM      6  C   UNL     1      35.669  29.460  44.537  1.00  0.00     0.134 A 
ATOM      7  C   UNL     1      34.856  30.385  43.865  1.00  0.00     0.093 A 
ATOM      8  C   UNL     1      35.177  31.744  43.861  1.00  0.00     0.123 A 
ATOM      9  C   UNL     1      36.320  32.192  44.531  1.00  0.00     0.094 A 
ATOM     10  C   UNL     1      37.144  31.286  45.206  1.00  0.00     0.146 A 
ATOM     11  O   UNL     1      38.226  31.737  45.829  1.00  0.00    -0.452 OA
ENDROOT
BRANCH   1  12
ATOM     12  C   UNL     1      40.246  31.575  47.136  1.00  0.00     0.025 A 
ATOM     13  C   UNL     1      40.138  32.064  48.448  1.00  0.00     0.016 A 
ATOM     14  C   UNL     1      41.231  32.676  49.068  1.00  0.00     0.051 A 
ATOM     15  C   UNL     1      42.441  32.823  48.380  1.00  0.00     0.157 A 
ATOM     16  C   UNL     1      41.458  31.744  46.442  1.00  0.00     0.062 A 
ATOM     17  C   UNL     1      42.554  32.360  47.063  1.00  0.00     0.158 A 
BRANCH  15  18
ATOM     18  O   UNL     1      43.534  33.432  48.995  1.00  0.00    -0.504 OA
ATOM     19  H   UNL     1      43.424  34.258  49.571  1.00  0.00     0.293 HD
ENDBRANCH  15  18
BRANCH  17  20
ATOM     20  O   UNL     1      43.756  32.520  46.376  1.00  0.00    -0.504 OA
ATOM     21  H   UNL     1      43.842  33.165  45.599  1.00  0.00     0.293 HD
ENDBRANCH  17  20
ENDBRANCH   1  12
BRANCH   2  22
ATOM     22  O   UNL     1      39.658  28.740  47.324  1.00  0.00    -0.502 OA
ATOM     23  H   UNL     1      40.557  28.426  46.977  1.00  0.00     0.293 HD
ENDBRANCH   2  22
BRANCH   6  24
ATOM     24  O   UNL     1      35.321  28.109  44.525  1.00  0.00    -0.507 OA
ATOM     25  H   UNL     1      34.622  27.744  43.888  1.00  0.00     0.293 HD
ENDBRANCH   6  24
BRANCH   8  26
ATOM     26  O   UNL     1      34.353  32.642  43.186  1.00  0.00    -0.508 OA
ATOM     27  H   UNL     1      33.772  33.305  43.683  1.00  0.00     0.293 HD
ENDBRANCH   8  26
TORSDOF 6
ENDMDL
MODEL 6
REMARK VINA RESULT:    -5.527      3.268      4.726
REMARK INTER + INTRA:          -6.942
REMARK INTER:                  -6.669
REMARK INTRA:                  -0.273
REMARK UNBOUND:                -0.284
REMARK SMILES O=c1c(O)c(-c2ccc(O)c(O)c2)oc2cc(O)cc(O)c12
REMARK SMILES IDX 5 1 3 2 2 3 1 4 22 5 20 6 19 7 17 8 16 9 15 10 14 11 6 12
REMARK SMILES IDX 7 13 8 14 9 15 13 16 11 17 10 18 12 20 4 22 21 24 18 26
REMARK H PARENT 10 19 12 21 4 23 21 25 18 27
REMARK Flexibility Score: inf
ROOT
ATOM      1  C   UNL     1      33.987  29.880  43.871  1.00  0.00     0.180 A 
ATOM      2  C   UNL     1      35.063  28.974  43.804  1.00  0.00     0.208 A 
ATOM      3  C   UNL     1      35.043  27.968  42.826  1.00  0.00     0.238 A 
ATOM      4  O   UNL     1      36.006  27.158  42.749  1.00  0.00    -0.285 OA
ATOM      5  C   UNL     1      33.943  27.871  41.948  1.00  0.00     0.111 A 
ATOM      6  C   UNL     1      33.843  26.885  40.938  1.00  0.00     0.134 A 
ATOM      7  C   UNL     1      32.711  26.849  40.109  1.00  0.00     0.093 A 
ATOM      8  C   UNL     1      31.680  27.778  40.272  1.00  0.00     0.123 A 
ATOM      9  C   UNL     1      31.773  28.755  41.268  1.00  0.00     0.094 A 
ATOM     10  C   UNL     1      32.894  28.808  42.103  1.00  0.00     0.146 A 
ATOM     11  O   UNL     1      32.961  29.750  43.037  1.00  0.00    -0.452 OA
ENDROOT
BRANCH   1  12
ATOM     12  C   UNL     1      33.945  30.979  44.862  1.00  0.00     0.025 A 
ATOM     13  C   UNL     1      33.589  30.700  46.191  1.00  0.00     0.016 A 
ATOM     14  C   UNL     1      33.523  31.725  47.138  1.00  0.00     0.051 A 
ATOM     15  C   UNL     1      33.796  33.047  46.766  1.00  0.00     0.157 A 
ATOM     16  C   UNL     1      34.199  32.312  44.489  1.00  0.00     0.062 A 
ATOM     17  C   UNL     1      34.130  33.342  45.438  1.00  0.00     0.158 A 
BRANCH  15  18
ATOM     18  O   UNL     1      33.732  34.073  47.708  1.00  0.00    -0.504 OA
ATOM     19  H   UNL     1      34.484  34.744  47.811  1.00  0.00     0.293 HD
ENDBRANCH  15  18
BRANCH  17  20
ATOM     20  O   UNL     1      34.388  34.661  45.068  1.00  0.00    -0.504 OA
ATOM     21  H   UNL     1      35.037  34.886  44.324  1.00  0.00     0.293 HD
ENDBRANCH  17  20
ENDBRANCH   1  12
BRANCH   2  22
ATOM     22  O   UNL     1      36.117  29.061  44.717  1.00  0.00    -0.502 OA
ATOM     23  H   UNL     1      36.749  29.853  44.743  1.00  0.00     0.293 HD
ENDBRANCH   2  22
BRANCH   6  24
ATOM     24  O   UNL     1      34.854  25.943  40.752  1.00  0.00    -0.507 OA
ATOM     25  H   UNL     1      35.607  26.091  40.089  1.00  0.00     0.293 HD
ENDBRANCH   6  24
BRANCH   8  26
ATOM     26  O   UNL     1      30.566  27.721  39.437  1.00  0.00    -0.508 OA
ATOM     27  H   UNL     1      30.648  27.456  38.463  1.00  0.00     0.293 HD
ENDBRANCH   8  26
TORSDOF 6
ENDMDL
MODEL 7
REMARK VINA RESULT:    -5.418      2.221      3.281
REMARK INTER + INTRA:          -6.810
REMARK INTER:                  -6.485
REMARK INTRA:                  -0.325
REMARK UNBOUND:                -0.284
REMARK SMILES O=c1c(O)c(-c2ccc(O)c(O)c2)oc2cc(O)cc(O)c12
REMARK SMILES IDX 5 1 3 2 2 3 1 4 22 5 20 6 19 7 17 8 16 9 15 10 14 11 6 12
REMARK SMILES IDX 7 13 8 14 9 15 13 16 11 17 10 18 12 20 4 22 21 24 18 26
REMARK H PARENT 10 19 12 21 4 23 21 25 18 27
REMARK Flexibility Score: inf
ROOT
ATOM      1  C   UNL     1      38.745  30.816  46.565  1.00  0.00     0.180 A 
ATOM      2  C   UNL     1      37.702  31.725  46.829  1.00  0.00     0.208 A 
ATOM      3  C   UNL     1      36.439  31.492  46.264  1.00  0.00     0.238 A 
ATOM      4  O   UNL     1      35.496  32.295  46.502  1.00  0.00    -0.285 OA
ATOM      5  C   UNL     1      36.244  30.371  45.431  1.00  0.00     0.111 A 
ATOM      6  C   UNL     1      35.004  30.067  44.820  1.00  0.00     0.134 A 
ATOM      7  C   UNL     1      34.893  28.936  43.997  1.00  0.00     0.093 A 
ATOM      8  C   UNL     1      35.995  28.107  43.773  1.00  0.00     0.123 A 
ATOM      9  C   UNL     1      37.221  28.401  44.375  1.00  0.00     0.094 A 
ATOM     10  C   UNL     1      37.353  29.523  45.200  1.00  0.00     0.146 A 
ATOM     11  O   UNL     1      38.528  29.777  45.764  1.00  0.00    -0.452 OA
ENDROOT
BRANCH   1  12
ATOM     12  C   UNL     1      40.099  30.982  47.140  1.00  0.00     0.025 A 
ATOM     13  C   UNL     1      40.383  30.447  48.406  1.00  0.00     0.016 A 
ATOM     14  C   UNL     1      41.648  30.609  48.977  1.00  0.00     0.051 A 
ATOM     15  C   UNL     1      42.642  31.323  48.297  1.00  0.00     0.157 A 
ATOM     16  C   UNL     1      41.095  31.716  46.469  1.00  0.00     0.062 A 
ATOM     17  C   UNL     1      42.364  31.882  47.042  1.00  0.00     0.158 A 
BRANCH  15  18
ATOM     18  O   UNL     1      43.906  31.487  48.861  1.00  0.00    -0.504 OA
ATOM     19  H   UNL     1      44.737  31.119  48.414  1.00  0.00     0.293 HD
ENDBRANCH  15  18
BRANCH  17  20
ATOM     20  O   UNL     1      43.351  32.603  46.373  1.00  0.00    -0.504 OA
ATOM     21  H   UNL     1      43.530  33.578  46.583  1.00  0.00     0.293 HD
ENDBRANCH  17  20
ENDBRANCH   1  12
BRANCH   2  22
ATOM     22  O   UNL     1      37.935  32.856  47.618  1.00  0.00    -0.502 OA
ATOM     23  H   UNL     1      38.480  32.819  48.471  1.00  0.00     0.293 HD
ENDBRANCH   2  22
BRANCH   6  24
ATOM     24  O   UNL     1      33.886  30.877  45.022  1.00  0.00    -0.507 OA
ATOM     25  H   UNL     1      32.960  30.486  45.151  1.00  0.00     0.293 HD
ENDBRANCH   6  24
BRANCH   8  26
ATOM     26  O   UNL     1      35.858  26.990  42.951  1.00  0.00    -0.508 OA
ATOM     27  H   UNL     1      36.660  26.546  42.523  1.00  0.00     0.293 HD
ENDBRANCH   8  26
TORSDOF 6
ENDMDL
MODEL 8
REMARK VINA RESULT:    -5.393      2.111      6.541
REMARK INTER + INTRA:          -6.780
REMARK INTER:                  -6.452
REMARK INTRA:                  -0.329
REMARK UNBOUND:                -0.284
REMARK SMILES O=c1c(O)c(-c2ccc(O)c(O)c2)oc2cc(O)cc(O)c12
REMARK SMILES IDX 5 1 3 2 2 3 1 4 22 5 20 6 19 7 17 8 16 9 15 10 14 11 6 12
REMARK SMILES IDX 7 13 8 14 9 15 13 16 11 17 10 18 12 20 4 22 21 24 18 26
REMARK H PARENT 10 19 12 21 4 23 21 25 18 27
REMARK Flexibility Score: inf
ROOT
ATOM      1  C   UNL     1      35.912  30.220  45.783  1.00  0.00     0.180 A 
ATOM      2  C   UNL     1      36.684  31.047  46.621  1.00  0.00     0.208 A 
ATOM      3  C   UNL     1      37.764  30.486  47.319  1.00  0.00     0.238 A 
ATOM      4  O   UNL     1      38.469  31.220  48.064  1.00  0.00    -0.285 OA
ATOM      5  C   UNL     1      38.042  29.110  47.186  1.00  0.00     0.111 A 
ATOM      6  C   UNL     1      39.108  28.466  47.858  1.00  0.00     0.134 A 
ATOM      7  C   UNL     1      39.314  27.090  47.679  1.00  0.00     0.093 A 
ATOM      8  C   UNL     1      38.474  26.347  46.845  1.00  0.00     0.123 A 
ATOM      9  C   UNL     1      37.420  26.977  46.179  1.00  0.00     0.094 A 
ATOM     10  C   UNL     1      37.199  28.349  46.342  1.00  0.00     0.146 A 
ATOM     11  O   UNL     1      36.194  28.924  45.693  1.00  0.00    -0.452 OA
ENDROOT
BRANCH   1  12
ATOM     12  C   UNL     1      34.769  30.741  44.999  1.00  0.00     0.025 A 
ATOM     13  C   UNL     1      33.483  30.735  45.563  1.00  0.00     0.016 A 
ATOM     14  C   UNL     1      32.387  31.203  44.834  1.00  0.00     0.051 A 
ATOM     15  C   UNL     1      32.558  31.669  43.525  1.00  0.00     0.157 A 
ATOM     16  C   UNL     1      34.932  31.191  43.676  1.00  0.00     0.062 A 
ATOM     17  C   UNL     1      33.832  31.659  42.943  1.00  0.00     0.158 A 
BRANCH  15  18
ATOM     18  O   UNL     1      31.468  32.138  42.794  1.00  0.00    -0.504 OA
ATOM     19  H   UNL     1      30.984  32.989  43.053  1.00  0.00     0.293 HD
ENDBRANCH  15  18
BRANCH  17  20
ATOM     20  O   UNL     1      33.997  32.110  41.634  1.00  0.00    -0.504 OA
ATOM     21  H   UNL     1      34.803  31.847  41.080  1.00  0.00     0.293 HD
ENDBRANCH  17  20
ENDBRANCH   1  12
BRANCH   2  22
ATOM     22  O   UNL     1      36.358  32.398  46.774  1.00  0.00    -0.502 OA
ATOM     23  H   UNL     1      35.624  32.843  46.235  1.00  0.00     0.293 HD
ENDBRANCH   2  22
BRANCH   6  24
ATOM     24  O   UNL     1      39.962  29.180  48.699  1.00  0.00    -0.507 OA
ATOM     25  H   UNL     1      39.684  29.455  49.634  1.00  0.00     0.293 HD
ENDBRANCH   6  24
BRANCH   8  26
ATOM     26  O   UNL     1      38.700  24.981  46.686  1.00  0.00    -0.508 OA
ATOM     27  H   UNL     1      39.608  24.622  46.420  1.00  0.00     0.293 HD
ENDBRANCH   8  26
TORSDOF 6
ENDMDL
MODEL 9
REMARK VINA RESULT:    -5.327      1.398      2.952
REMARK INTER + INTRA:          -6.701
REMARK INTER:                  -6.371
REMARK INTRA:                  -0.330
REMARK UNBOUND:                -0.284
REMARK SMILES O=c1c(O)c(-c2ccc(O)c(O)c2)oc2cc(O)cc(O)c12
REMARK SMILES IDX 5 1 3 2 2 3 1 4 22 5 20 6 19 7 17 8 16 9 15 10 14 11 6 12
REMARK SMILES IDX 7 13 8 14 9 15 13 16 11 17 10 18 12 20 4 22 21 24 18 26
REMARK H PARENT 10 19 12 21 4 23 21 25 18 27
REMARK Flexibility Score: inf
ROOT
ATOM      1  C   UNL     1      35.697  29.769  45.098  1.00  0.00     0.180 A 
ATOM      2  C   UNL     1      35.400  28.890  44.039  1.00  0.00     0.208 A 
ATOM      3  C   UNL     1      34.206  29.069  43.323  1.00  0.00     0.238 A 
ATOM      4  O   UNL     1      33.936  28.295  42.365  1.00  0.00    -0.285 OA
ATOM      5  C   UNL     1      33.323  30.107  43.688  1.00  0.00     0.111 A 
ATOM      6  C   UNL     1      32.099  30.352  43.021  1.00  0.00     0.134 A 
ATOM      7  C   UNL     1      31.270  31.399  43.451  1.00  0.00     0.093 A 
ATOM      8  C   UNL     1      31.640  32.202  44.533  1.00  0.00     0.123 A 
ATOM      9  C   UNL     1      32.848  31.965  45.195  1.00  0.00     0.094 A 
ATOM     10  C   UNL     1      33.689  30.927  44.781  1.00  0.00     0.146 A 
ATOM     11  O   UNL     1      34.834  30.727  45.424  1.00  0.00    -0.452 OA
ENDROOT
BRANCH   1  12
ATOM     12  C   UNL     1      36.944  29.657  45.888  1.00  0.00     0.025 A 
ATOM     13  C   UNL     1      36.960  28.864  47.047  1.00  0.00     0.016 A 
ATOM     14  C   UNL     1      38.120  28.760  47.819  1.00  0.00     0.051 A 
ATOM     15  C   UNL     1      39.276  29.460  47.452  1.00  0.00     0.157 A 
ATOM     16  C   UNL     1      38.102  30.374  45.535  1.00  0.00     0.062 A 
ATOM     17  C   UNL     1      39.266  30.272  46.311  1.00  0.00     0.158 A 
BRANCH  15  18
ATOM     18  O   UNL     1      40.436  29.358  48.219  1.00  0.00    -0.504 OA
ATOM     19  H   UNL     1      41.328  29.695  47.876  1.00  0.00     0.293 HD
ENDBRANCH  15  18
BRANCH  17  20
ATOM     20  O   UNL     1      40.414  30.978  45.956  1.00  0.00    -0.504 OA
ATOM     21  H   UNL     1      41.327  30.719  46.310  1.00  0.00     0.293 HD
ENDBRANCH  17  20
ENDBRANCH   1  12
BRANCH   2  22
ATOM     22  O   UNL     1      36.269  27.840  43.729  1.00  0.00    -0.502 OA
ATOM     23  H   UNL     1      37.258  27.985  43.565  1.00  0.00     0.293 HD
ENDBRANCH   2  22
BRANCH   6  24
ATOM     24  O   UNL     1      31.701  29.567  41.939  1.00  0.00    -0.507 OA
ATOM     25  H   UNL     1      32.375  29.111  41.334  1.00  0.00     0.293 HD
ENDBRANCH   6  24
BRANCH   8  26
ATOM     26  O   UNL     1      30.798  33.235  44.940  1.00  0.00    -0.508 OA
ATOM     27  H   UNL     1      29.912  33.407  44.482  1.00  0.00     0.293 HD
ENDBRANCH   8  26
TORSDOF 6
ENDMDL
