MODEL 1
REMARK VINA RESULT:    -7.453      0.000      0.000
REMARK INTER + INTRA:          -9.078
REMARK INTER:                  -8.760
REMARK INTRA:                  -0.318
REMARK UNBOUND:                -0.318
REMARK SMILES O=c1cc(-c2ccc(O)c(O)c2)oc2cc(O)cc(O)c12
REMARK SMILES IDX 4 1 3 2 2 3 1 4 21 5 19 6 18 7 16 8 15 9 14 10 13 11 5 12
REMARK SMILES IDX 6 13 7 14 8 15 12 16 10 17 9 18 11 20 20 22 17 24
REMARK H PARENT 9 19 11 21 20 23 17 25
REMARK Flexibility Score: inf
ROOT
ATOM      1  C   UNL     1     124.197 120.847 121.369  1.00  0.00     0.138 A 
ATOM      2  C   UNL     1     124.701 121.796 122.268  1.00  0.00     0.100 A 
ATOM      3  C   UNL     1     125.906 122.442 121.986  1.00  0.00     0.197 A 
ATOM      4  O   UNL     1     126.301 123.334 122.781  1.00  0.00    -0.289 OA
ATOM      5  C   UNL     1     126.623 122.111 120.812  1.00  0.00     0.107 A 
ATOM      6  C   UNL     1     127.881 122.675 120.443  1.00  0.00     0.134 A 
ATOM      7  C   UNL     1     128.442 122.358 119.200  1.00  0.00     0.093 A 
ATOM      8  C   UNL     1     127.819 121.450 118.340  1.00  0.00     0.123 A 
ATOM      9  C   UNL     1     126.618 120.853 118.715  1.00  0.00     0.094 A 
ATOM     10  C   UNL     1     126.017 121.175 119.933  1.00  0.00     0.146 A 
ATOM     11  O   UNL     1     124.864 120.595 120.247  1.00  0.00    -0.456 OA
ENDROOT
BRANCH   1  12
ATOM     12  C   UNL     1     122.922 120.128 121.619  1.00  0.00     0.021 A 
ATOM     13  C   UNL     1     122.160 120.358 122.781  1.00  0.00     0.016 A 
ATOM     14  C   UNL     1     120.969 119.661 122.995  1.00  0.00     0.051 A 
ATOM     15  C   UNL     1     120.520 118.719 122.060  1.00  0.00     0.157 A 
ATOM     16  C   UNL     1     122.472 119.172 120.691  1.00  0.00     0.062 A 
ATOM     17  C   UNL     1     121.277 118.474 120.903  1.00  0.00     0.158 A 
BRANCH  15  18
ATOM     18  O   UNL     1     119.330 118.027 122.276  1.00  0.00    -0.504 OA
ATOM     19  H   UNL     1     118.740 117.731 121.508  1.00  0.00     0.293 HD
ENDBRANCH  15  18
BRANCH  17  20
ATOM     20  O   UNL     1     120.862 117.540 119.955  1.00  0.00    -0.504 OA
ATOM     21  H   UNL     1     121.328 117.437 119.060  1.00  0.00     0.293 HD
ENDBRANCH  17  20
ENDBRANCH   1  12
BRANCH   6  22
ATOM     22  O   UNL     1     128.627 123.526 121.264  1.00  0.00    -0.507 OA
ATOM     23  H   UNL     1     128.246 124.090 122.009  1.00  0.00     0.293 HD
ENDBRANCH   6  22
BRANCH   8  24
ATOM     24  O   UNL     1     128.393 121.128 117.111  1.00  0.00    -0.508 OA
ATOM     25  H   UNL     1     127.896 121.273 116.240  1.00  0.00     0.293 HD
ENDBRANCH   8  24
TORSDOF 5
ENDMDL
MODEL 2
REMARK VINA RESULT:    -7.272      2.340      6.735
REMARK INTER + INTRA:          -8.866
REMARK INTER:                  -8.552
REMARK INTRA:                  -0.314
REMARK UNBOUND:                -0.318
REMARK SMILES O=c1cc(-c2ccc(O)c(O)c2)oc2cc(O)cc(O)c12
REMARK SMILES IDX 4 1 3 2 2 3 1 4 21 5 19 6 18 7 16 8 15 9 14 10 13 11 5 12
REMARK SMILES IDX 6 13 7 14 8 15 12 16 10 17 9 18 11 20 20 22 17 24
REMARK H PARENT 9 19 11 21 20 23 17 25
REMARK Flexibility Score: inf
ROOT
ATOM      1  C   UNL     1     125.885 120.940 122.344  1.00  0.00     0.138 A 
ATOM      2  C   UNL     1     126.362 121.146 123.645  1.00  0.00     0.100 A 
ATOM      3  C   UNL     1     125.601 120.716 124.734  1.00  0.00     0.197 A 
ATOM      4  O   UNL     1     126.084 120.858 125.888  1.00  0.00    -0.289 OA
ATOM      5  C   UNL     1     124.343 120.107 124.517  1.00  0.00     0.107 A 
ATOM      6  C   UNL     1     123.463 119.667 125.551  1.00  0.00     0.134 A 
ATOM      7  C   UNL     1     122.295 118.972 125.215  1.00  0.00     0.093 A 
ATOM      8  C   UNL     1     121.945 118.755 123.880  1.00  0.00     0.123 A 
ATOM      9  C   UNL     1     122.770 119.228 122.862  1.00  0.00     0.094 A 
ATOM     10  C   UNL     1     123.959 119.894 123.166  1.00  0.00     0.146 A 
ATOM     11  O   UNL     1     124.725 120.316 122.166  1.00  0.00    -0.456 OA
ENDROOT
BRANCH   1  12
ATOM     12  C   UNL     1     126.652 121.378 121.149  1.00  0.00     0.021 A 
ATOM     13  C   UNL     1     127.675 122.341 121.240  1.00  0.00     0.016 A 
ATOM     14  C   UNL     1     128.373 122.741 120.098  1.00  0.00     0.051 A 
ATOM     15  C   UNL     1     128.060 122.194 118.848  1.00  0.00     0.157 A 
ATOM     16  C   UNL     1     126.334 120.842 119.888  1.00  0.00     0.062 A 
ATOM     17  C   UNL     1     127.034 121.241 118.743  1.00  0.00     0.158 A 
BRANCH  15  18
ATOM     18  O   UNL     1     128.761 122.595 117.712  1.00  0.00    -0.504 OA
ATOM     19  H   UNL     1     129.084 123.548 117.595  1.00  0.00     0.293 HD
ENDBRANCH  15  18
BRANCH  17  20
ATOM     20  O   UNL     1     126.695 120.680 117.513  1.00  0.00    -0.504 OA
ATOM     21  H   UNL     1     126.147 121.183 116.824  1.00  0.00     0.293 HD
ENDBRANCH  17  20
ENDBRANCH   1  12
BRANCH   6  22
ATOM     22  O   UNL     1     123.676 119.907 126.912  1.00  0.00    -0.507 OA
ATOM     23  H   UNL     1     123.678 119.197 127.629  1.00  0.00     0.293 HD
ENDBRANCH   6  22
BRANCH   8  24
ATOM     24  O   UNL     1     120.773 118.076 123.554  1.00  0.00    -0.508 OA
ATOM     25  H   UNL     1     120.048 117.909 124.243  1.00  0.00     0.293 HD
ENDBRANCH   8  24
TORSDOF 5
ENDMDL
MODEL 3
REMARK VINA RESULT:    -7.145      9.043     14.452
REMARK INTER + INTRA:          -8.716
REMARK INTER:                  -8.444
REMARK INTRA:                  -0.272
REMARK UNBOUND:                -0.318
REMARK SMILES O=c1cc(-c2ccc(O)c(O)c2)oc2cc(O)cc(O)c12
REMARK SMILES IDX 4 1 3 2 2 3 1 4 21 5 19 6 18 7 16 8 15 9 14 10 13 11 5 12
REMARK SMILES IDX 6 13 7 14 8 15 12 16 10 17 9 18 11 20 20 22 17 24
REMARK H PARENT 9 19 11 21 20 23 17 25
REMARK Flexibility Score: inf
ROOT
ATOM      1  C   UNL     1     112.909 116.806 121.432  1.00  0.00     0.138 A 
ATOM      2  C   UNL     1     112.516 115.800 122.325  1.00  0.00     0.100 A 
ATOM      3  C   UNL     1     111.414 115.000 122.021  1.00  0.00     0.197 A 
ATOM      4  O   UNL     1     111.124 114.065 122.812  1.00  0.00    -0.289 OA
ATOM      5  C   UNL     1     110.683 115.231 120.832  1.00  0.00     0.107 A 
ATOM      6  C   UNL     1     109.518 114.506 120.440  1.00  0.00     0.134 A 
ATOM      7  C   UNL     1     108.946 114.745 119.184  1.00  0.00     0.093 A 
ATOM      8  C   UNL     1     109.460 115.726 118.333  1.00  0.00     0.123 A 
ATOM      9  C   UNL     1     110.564 116.477 118.731  1.00  0.00     0.094 A 
ATOM     10  C   UNL     1     111.178 116.238 119.962  1.00  0.00     0.146 A 
ATOM     11  O   UNL     1     112.238 116.967 120.296  1.00  0.00    -0.456 OA
ENDROOT
BRANCH   1  12
ATOM     12  C   UNL     1     114.073 117.688 121.705  1.00  0.00     0.021 A 
ATOM     13  C   UNL     1     115.099 117.871 120.758  1.00  0.00     0.016 A 
ATOM     14  C   UNL     1     116.187 118.698 121.046  1.00  0.00     0.051 A 
ATOM     15  C   UNL     1     116.274 119.351 122.281  1.00  0.00     0.157 A 
ATOM     16  C   UNL     1     114.174 118.336 122.949  1.00  0.00     0.062 A 
ATOM     17  C   UNL     1     115.263 119.167 123.238  1.00  0.00     0.158 A 
BRANCH  15  18
ATOM     18  O   UNL     1     117.361 120.177 122.563  1.00  0.00    -0.504 OA
ATOM     19  H   UNL     1     117.251 121.178 122.683  1.00  0.00     0.293 HD
ENDBRANCH  15  18
BRANCH  17  20
ATOM     20  O   UNL     1     115.321 119.798 124.479  1.00  0.00    -0.504 OA
ATOM     21  H   UNL     1     116.157 119.783 125.052  1.00  0.00     0.293 HD
ENDBRANCH  17  20
ENDBRANCH   1  12
BRANCH   6  22
ATOM     22  O   UNL     1     108.875 113.564 121.249  1.00  0.00    -0.507 OA
ATOM     23  H   UNL     1     109.052 112.571 121.231  1.00  0.00     0.293 HD
ENDBRANCH   6  22
BRANCH   8  24
ATOM     24  O   UNL     1     108.875 115.968 117.092  1.00  0.00    -0.508 OA
ATOM     25  H   UNL     1     108.254 115.295 116.659  1.00  0.00     0.293 HD
ENDBRANCH   8  24
TORSDOF 5
ENDMDL
MODEL 4
REMARK VINA RESULT:    -7.122      6.351      7.954
REMARK INTER + INTRA:          -8.689
REMARK INTER:                  -8.395
REMARK INTRA:                  -0.294
REMARK UNBOUND:                -0.318
REMARK SMILES O=c1cc(-c2ccc(O)c(O)c2)oc2cc(O)cc(O)c12
REMARK SMILES IDX 4 1 3 2 2 3 1 4 21 5 19 6 18 7 16 8 15 9 14 10 13 11 5 12
REMARK SMILES IDX 6 13 7 14 8 15 12 16 10 17 9 18 11 20 20 22 17 24
REMARK H PARENT 9 19 11 21 20 23 17 25
REMARK Flexibility Score: inf
ROOT
ATOM      1  C   UNL     1     119.821 121.438 116.076  1.00  0.00     0.138 A 
ATOM      2  C   UNL     1     119.133 120.680 117.032  1.00  0.00     0.100 A 
ATOM      3  C   UNL     1     119.849 119.884 117.928  1.00  0.00     0.197 A 
ATOM      4  O   UNL     1     119.208 119.264 118.815  1.00  0.00    -0.289 OA
ATOM      5  C   UNL     1     121.260 119.825 117.842  1.00  0.00     0.107 A 
ATOM      6  C   UNL     1     122.091 119.017 118.675  1.00  0.00     0.134 A 
ATOM      7  C   UNL     1     123.484 119.128 118.576  1.00  0.00     0.093 A 
ATOM      8  C   UNL     1     124.074 119.972 117.632  1.00  0.00     0.123 A 
ATOM      9  C   UNL     1     123.271 120.724 116.779  1.00  0.00     0.094 A 
ATOM     10  C   UNL     1     121.879 120.662 116.876  1.00  0.00     0.146 A 
ATOM     11  O   UNL     1     121.150 121.406 116.052  1.00  0.00    -0.456 OA
ENDROOT
BRANCH   1  12
ATOM     12  C   UNL     1     119.110 122.301 115.098  1.00  0.00     0.021 A 
ATOM     13  C   UNL     1     119.790 122.936 114.041  1.00  0.00     0.016 A 
ATOM     14  C   UNL     1     119.098 123.750 113.142  1.00  0.00     0.051 A 
ATOM     15  C   UNL     1     117.719 123.949 113.283  1.00  0.00     0.157 A 
ATOM     16  C   UNL     1     117.728 122.517 115.242  1.00  0.00     0.062 A 
ATOM     17  C   UNL     1     117.032 123.331 114.340  1.00  0.00     0.158 A 
BRANCH  15  18
ATOM     18  O   UNL     1     117.031 124.760 112.382  1.00  0.00    -0.504 OA
ATOM     19  H   UNL     1     117.062 125.771 112.447  1.00  0.00     0.293 HD
ENDBRANCH  15  18
BRANCH  17  20
ATOM     20  O   UNL     1     115.660 123.512 114.512  1.00  0.00    -0.504 OA
ATOM     21  H   UNL     1     115.121 122.952 115.163  1.00  0.00     0.293 HD
ENDBRANCH  17  20
ENDBRANCH   1  12
BRANCH   6  22
ATOM     22  O   UNL     1     121.604 118.080 119.591  1.00  0.00    -0.507 OA
ATOM     23  H   UNL     1     121.141 118.307 120.458  1.00  0.00     0.293 HD
ENDBRANCH   6  22
BRANCH   8  24
ATOM     24  O   UNL     1     125.461 120.065 117.530  1.00  0.00    -0.508 OA
ATOM     25  H   UNL     1     126.029 119.261 117.289  1.00  0.00     0.293 HD
ENDBRANCH   8  24
TORSDOF 5
ENDMDL
MODEL 5
REMARK VINA RESULT:    -7.103      1.277      2.041
REMARK INTER + INTRA:          -8.667
REMARK INTER:                  -8.372
REMARK INTRA:                  -0.295
REMARK UNBOUND:                -0.318
REMARK SMILES O=c1cc(-c2ccc(O)c(O)c2)oc2cc(O)cc(O)c12
REMARK SMILES IDX 4 1 3 2 2 3 1 4 21 5 19 6 18 7 16 8 15 9 14 10 13 11 5 12
REMARK SMILES IDX 6 13 7 14 8 15 12 16 10 17 9 18 11 20 20 22 17 24
REMARK H PARENT 9 19 11 21 20 23 17 25
REMARK Flexibility Score: inf
ROOT
ATOM      1  C   UNL     1     124.094 120.063 120.029  1.00  0.00     0.138 A 
ATOM      2  C   UNL     1     124.479 120.511 121.300  1.00  0.00     0.100 A 
ATOM      3  C   UNL     1     125.682 121.201 121.452  1.00  0.00     0.197 A 
ATOM      4  O   UNL     1     125.971 121.645 122.594  1.00  0.00    -0.289 OA
ATOM      5  C   UNL     1     126.517 121.416 120.330  1.00  0.00     0.107 A 
ATOM      6  C   UNL     1     127.785 122.071 120.374  1.00  0.00     0.134 A 
ATOM      7  C   UNL     1     128.470 122.329 119.180  1.00  0.00     0.093 A 
ATOM      8  C   UNL     1     127.962 121.902 117.951  1.00  0.00     0.123 A 
ATOM      9  C   UNL     1     126.752 121.215 117.904  1.00  0.00     0.094 A 
ATOM     10  C   UNL     1     126.028 120.972 119.073  1.00  0.00     0.146 A 
ATOM     11  O   UNL     1     124.871 120.326 118.983  1.00  0.00    -0.456 OA
ENDROOT
BRANCH   1  12
ATOM     12  C   UNL     1     122.825 119.323 119.809  1.00  0.00     0.021 A 
ATOM     13  C   UNL     1     122.414 118.928 118.521  1.00  0.00     0.016 A 
ATOM     14  C   UNL     1     121.211 118.241 118.342  1.00  0.00     0.051 A 
ATOM     15  C   UNL     1     120.396 117.941 119.440  1.00  0.00     0.157 A 
ATOM     16  C   UNL     1     121.995 119.029 120.905  1.00  0.00     0.062 A 
ATOM     17  C   UNL     1     120.790 118.339 120.728  1.00  0.00     0.158 A 
BRANCH  15  18
ATOM     18  O   UNL     1     119.198 117.253 119.258  1.00  0.00    -0.504 OA
ATOM     19  H   UNL     1     118.968 116.431 119.803  1.00  0.00     0.293 HD
ENDBRANCH  15  18
BRANCH  17  20
ATOM     20  O   UNL     1     120.001 118.060 121.842  1.00  0.00    -0.504 OA
ATOM     21  H   UNL     1     120.373 118.079 122.785  1.00  0.00     0.293 HD
ENDBRANCH  17  20
ENDBRANCH   1  12
BRANCH   6  22
ATOM     22  O   UNL     1     128.421 122.462 121.555  1.00  0.00    -0.507 OA
ATOM     23  H   UNL     1     129.373 122.234 121.801  1.00  0.00     0.293 HD
ENDBRANCH   6  22
BRANCH   8  24
ATOM     24  O   UNL     1     128.658 122.150 116.770  1.00  0.00    -0.508 OA
ATOM     25  H   UNL     1     128.254 121.946 115.863  1.00  0.00     0.293 HD
ENDBRANCH   8  24
TORSDOF 5
ENDMDL
MODEL 6
REMARK VINA RESULT:    -7.076      9.660     13.306
REMARK INTER + INTRA:          -8.635
REMARK INTER:                  -8.328
REMARK INTRA:                  -0.307
REMARK UNBOUND:                -0.318
REMARK SMILES O=c1cc(-c2ccc(O)c(O)c2)oc2cc(O)cc(O)c12
REMARK SMILES IDX 4 1 3 2 2 3 1 4 21 5 19 6 18 7 16 8 15 9 14 10 13 11 5 12
REMARK SMILES IDX 6 13 7 14 8 15 12 16 10 17 9 18 11 20 20 22 17 24
REMARK H PARENT 9 19 11 21 20 23 17 25
REMARK Flexibility Score: inf
ROOT
ATOM      1  C   UNL     1     111.933 116.621 122.360  1.00  0.00     0.138 A 
ATOM      2  C   UNL     1     111.374 116.799 123.633  1.00  0.00     0.100 A 
ATOM      3  C   UNL     1     112.184 117.213 124.691  1.00  0.00     0.197 A 
ATOM      4  O   UNL     1     111.641 117.425 125.806  1.00  0.00    -0.289 OA
ATOM      5  C   UNL     1     113.568 117.418 124.479  1.00  0.00     0.107 A 
ATOM      6  C   UNL     1     114.497 117.800 125.492  1.00  0.00     0.134 A 
ATOM      7  C   UNL     1     115.822 118.087 125.142  1.00  0.00     0.093 A 
ATOM      8  C   UNL     1     116.265 117.947 123.824  1.00  0.00     0.123 A 
ATOM      9  C   UNL     1     115.378 117.523 122.837  1.00  0.00     0.094 A 
ATOM     10  C   UNL     1     114.042 117.262 123.150  1.00  0.00     0.146 A 
ATOM     11  O   UNL     1     113.225 116.873 122.176  1.00  0.00    -0.456 OA
ENDROOT
BRANCH   1  12
ATOM     12  C   UNL     1     111.119 116.181 121.199  1.00  0.00     0.021 A 
ATOM     13  C   UNL     1     109.989 115.355 121.359  1.00  0.00     0.016 A 
ATOM     14  C   UNL     1     109.247 114.948 120.248  1.00  0.00     0.051 A 
ATOM     15  C   UNL     1     109.621 115.351 118.960  1.00  0.00     0.157 A 
ATOM     16  C   UNL     1     111.496 116.570 119.901  1.00  0.00     0.062 A 
ATOM     17  C   UNL     1     110.752 116.165 118.787  1.00  0.00     0.158 A 
BRANCH  15  18
ATOM     18  O   UNL     1     108.876 114.945 117.854  1.00  0.00    -0.504 OA
ATOM     19  H   UNL     1     109.258 114.314 117.159  1.00  0.00     0.293 HD
ENDBRANCH  15  18
BRANCH  17  20
ATOM     20  O   UNL     1     111.154 116.580 117.518  1.00  0.00    -0.504 OA
ATOM     21  H   UNL     1     111.570 115.942 116.850  1.00  0.00     0.293 HD
ENDBRANCH  17  20
ENDBRANCH   1  12
BRANCH   6  22
ATOM     22  O   UNL     1     114.179 117.888 126.851  1.00  0.00    -0.507 OA
ATOM     23  H   UNL     1     114.127 118.747 127.377  1.00  0.00     0.293 HD
ENDBRANCH   6  22
BRANCH   8  24
ATOM     24  O   UNL     1     117.589 118.220 123.487  1.00  0.00    -0.508 OA
ATOM     25  H   UNL     1     118.226 117.486 123.201  1.00  0.00     0.293 HD
ENDBRANCH   8  24
TORSDOF 5
ENDMDL
MODEL 7
REMARK VINA RESULT:    -7.019      1.345      7.280
REMARK INTER + INTRA:          -8.569
REMARK INTER:                  -8.280
REMARK INTRA:                  -0.288
REMARK UNBOUND:                -0.318
REMARK SMILES O=c1cc(-c2ccc(O)c(O)c2)oc2cc(O)cc(O)c12
REMARK SMILES IDX 4 1 3 2 2 3 1 4 21 5 19 6 18 7 16 8 15 9 14 10 13 11 5 12
REMARK SMILES IDX 6 13 7 14 8 15 12 16 10 17 9 18 11 20 20 22 17 24
REMARK H PARENT 9 19 11 21 20 23 17 25
REMARK Flexibility Score: inf
ROOT
ATOM      1  C   UNL     1     124.223 120.539 120.600  1.00  0.00     0.138 A 
ATOM      2  C   UNL     1     123.975 119.824 119.421  1.00  0.00     0.100 A 
ATOM      3  C   UNL     1     122.833 119.027 119.324  1.00  0.00     0.197 A 
ATOM      4  O   UNL     1     122.604 118.447 118.231  1.00  0.00    -0.289 OA
ATOM      5  C   UNL     1     121.953 118.923 120.428  1.00  0.00     0.107 A 
ATOM      6  C   UNL     1     120.781 118.109 120.458  1.00  0.00     0.134 A 
ATOM      7  C   UNL     1     119.922 118.176 121.563  1.00  0.00     0.093 A 
ATOM      8  C   UNL     1     120.227 118.980 122.664  1.00  0.00     0.123 A 
ATOM      9  C   UNL     1     121.396 119.737 122.666  1.00  0.00     0.094 A 
ATOM     10  C   UNL     1     122.255 119.719 121.565  1.00  0.00     0.146 A 
ATOM     11  O   UNL     1     123.352 120.466 121.601  1.00  0.00    -0.456 OA
ENDROOT
BRANCH   1  12
ATOM     12  C   UNL     1     125.423 121.400 120.757  1.00  0.00     0.021 A 
ATOM     13  C   UNL     1     125.429 122.506 121.630  1.00  0.00     0.016 A 
ATOM     14  C   UNL     1     126.568 123.305 121.751  1.00  0.00     0.051 A 
ATOM     15  C   UNL     1     127.716 123.020 121.002  1.00  0.00     0.157 A 
ATOM     16  C   UNL     1     126.575 121.129 119.998  1.00  0.00     0.062 A 
ATOM     17  C   UNL     1     127.718 121.928 120.120  1.00  0.00     0.158 A 
BRANCH  15  18
ATOM     18  O   UNL     1     128.852 123.819 121.128  1.00  0.00    -0.504 OA
ATOM     19  H   UNL     1     128.809 124.741 121.544  1.00  0.00     0.293 HD
ENDBRANCH  15  18
BRANCH  17  20
ATOM     20  O   UNL     1     128.843 121.619 119.356  1.00  0.00    -0.504 OA
ATOM     21  H   UNL     1     128.786 121.047 118.521  1.00  0.00     0.293 HD
ENDBRANCH  17  20
ENDBRANCH   1  12
BRANCH   6  22
ATOM     22  O   UNL     1     120.429 117.208 119.449  1.00  0.00    -0.507 OA
ATOM     23  H   UNL     1     119.646 116.574 119.490  1.00  0.00     0.293 HD
ENDBRANCH   6  22
BRANCH   8  24
ATOM     24  O   UNL     1     119.375 119.028 123.765  1.00  0.00    -0.508 OA
ATOM     25  H   UNL     1     119.717 119.258 124.691  1.00  0.00     0.293 HD
ENDBRANCH   8  24
TORSDOF 5
ENDMDL
MODEL 8
REMARK VINA RESULT:    -7.001      8.545     14.048
REMARK INTER + INTRA:          -8.548
REMARK INTER:                  -8.231
REMARK INTRA:                  -0.317
REMARK UNBOUND:                -0.318
REMARK SMILES O=c1cc(-c2ccc(O)c(O)c2)oc2cc(O)cc(O)c12
REMARK SMILES IDX 4 1 3 2 2 3 1 4 21 5 19 6 18 7 16 8 15 9 14 10 13 11 5 12
REMARK SMILES IDX 6 13 7 14 8 15 12 16 10 17 9 18 11 20 20 22 17 24
REMARK H PARENT 9 19 11 21 20 23 17 25
REMARK Flexibility Score: inf
ROOT
ATOM      1  C   UNL     1     113.334 117.152 120.626  1.00  0.00     0.138 A 
ATOM      2  C   UNL     1     112.874 116.598 121.829  1.00  0.00     0.100 A 
ATOM      3  C   UNL     1     111.650 115.929 121.856  1.00  0.00     0.197 A 
ATOM      4  O   UNL     1     111.294 115.387 122.935  1.00  0.00    -0.289 OA
ATOM      5  C   UNL     1     110.868 115.844 120.680  1.00  0.00     0.107 A 
ATOM      6  C   UNL     1     109.586 115.222 120.599  1.00  0.00     0.134 A 
ATOM      7  C   UNL     1     108.957 115.095 119.355  1.00  0.00     0.093 A 
ATOM      8  C   UNL     1     109.536 115.623 118.198  1.00  0.00     0.123 A 
ATOM      9  C   UNL     1     110.762 116.278 118.275  1.00  0.00     0.094 A 
ATOM     10  C   UNL     1     111.431 116.390 119.496  1.00  0.00     0.146 A 
ATOM     11  O   UNL     1     112.605 117.011 119.524  1.00  0.00    -0.456 OA
ENDROOT
BRANCH   1  12
ATOM     12  C   UNL     1     114.628 117.876 120.540  1.00  0.00     0.021 A 
ATOM     13  C   UNL     1     115.353 118.234 121.693  1.00  0.00     0.016 A 
ATOM     14  C   UNL     1     116.563 118.923 121.582  1.00  0.00     0.051 A 
ATOM     15  C   UNL     1     117.067 119.272 120.323  1.00  0.00     0.157 A 
ATOM     16  C   UNL     1     115.133 118.242 119.280  1.00  0.00     0.062 A 
ATOM     17  C   UNL     1     116.347 118.931 119.167  1.00  0.00     0.158 A 
BRANCH  15  18
ATOM     18  O   UNL     1     118.276 119.958 120.217  1.00  0.00    -0.504 OA
ATOM     19  H   UNL     1     118.351 120.826 119.699  1.00  0.00     0.293 HD
ENDBRANCH  15  18
BRANCH  17  20
ATOM     20  O   UNL     1     116.818 119.268 117.899  1.00  0.00    -0.504 OA
ATOM     21  H   UNL     1     116.254 119.786 117.235  1.00  0.00     0.293 HD
ENDBRANCH  17  20
ENDBRANCH   1  12
BRANCH   6  22
ATOM     22  O   UNL     1     108.882 114.738 121.706  1.00  0.00    -0.507 OA
ATOM     23  H   UNL     1     108.759 113.762 121.929  1.00  0.00     0.293 HD
ENDBRANCH   6  22
BRANCH   8  24
ATOM     24  O   UNL     1     108.895 115.506 116.966  1.00  0.00    -0.508 OA
ATOM     25  H   UNL     1     108.007 115.027 116.874  1.00  0.00     0.293 HD
ENDBRANCH   8  24
TORSDOF 5
ENDMDL
MODEL 9
REMARK VINA RESULT:    -6.744      1.983      3.592
REMARK INTER + INTRA:          -8.245
REMARK INTER:                  -7.937
REMARK INTRA:                  -0.308
REMARK UNBOUND:                -0.318
REMARK SMILES O=c1cc(-c2ccc(O)c(O)c2)oc2cc(O)cc(O)c12
REMARK SMILES IDX 4 1 3 2 2 3 1 4 21 5 19 6 18 7 16 8 15 9 14 10 13 11 5 12
REMARK SMILES IDX 6 13 7 14 8 15 12 16 10 17 9 18 11 20 20 22 17 24
REMARK H PARENT 9 19 11 21 20 23 17 25
REMARK Flexibility Score: inf
ROOT
ATOM      1  C   UNL     1     123.673 119.627 119.789  1.00  0.00     0.138 A 
ATOM      2  C   UNL     1     124.470 120.171 118.773  1.00  0.00     0.100 A 
ATOM      3  C   UNL     1     125.716 120.716 119.091  1.00  0.00     0.197 A 
ATOM      4  O   UNL     1     126.435 121.139 118.150  1.00  0.00    -0.289 OA
ATOM      5  C   UNL     1     126.149 120.743 120.438  1.00  0.00     0.107 A 
ATOM      6  C   UNL     1     127.380 121.310 120.884  1.00  0.00     0.134 A 
ATOM      7  C   UNL     1     127.756 121.175 122.226  1.00  0.00     0.093 A 
ATOM      8  C   UNL     1     126.916 120.547 123.150  1.00  0.00     0.123 A 
ATOM      9  C   UNL     1     125.688 120.039 122.734  1.00  0.00     0.094 A 
ATOM     10  C   UNL     1     125.300 120.127 121.396  1.00  0.00     0.146 A 
ATOM     11  O   UNL     1     124.127 119.616 121.038  1.00  0.00    -0.456 OA
ENDROOT
BRANCH   1  12
ATOM     12  C   UNL     1     122.340 119.036 119.509  1.00  0.00     0.021 A 
ATOM     13  C   UNL     1     122.020 118.499 118.247  1.00  0.00     0.016 A 
ATOM     14  C   UNL     1     120.754 117.958 118.008  1.00  0.00     0.051 A 
ATOM     15  C   UNL     1     119.785 117.949 119.019  1.00  0.00     0.157 A 
ATOM     16  C   UNL     1     121.357 119.035 120.515  1.00  0.00     0.062 A 
ATOM     17  C   UNL     1     120.089 118.492 120.277  1.00  0.00     0.158 A 
BRANCH  15  18
ATOM     18  O   UNL     1     118.525 117.406 118.777  1.00  0.00    -0.504 OA
ATOM     19  H   UNL     1     117.876 117.212 119.531  1.00  0.00     0.293 HD
ENDBRANCH  15  18
BRANCH  17  20
ATOM     20  O   UNL     1     119.146 118.503 121.304  1.00  0.00    -0.504 OA
ATOM     21  H   UNL     1     119.409 118.407 122.278  1.00  0.00     0.293 HD
ENDBRANCH  17  20
ENDBRANCH   1  12
BRANCH   6  22
ATOM     22  O   UNL     1     128.252 122.030 120.062  1.00  0.00    -0.507 OA
ATOM     23  H   UNL     1     128.840 121.625 119.349  1.00  0.00     0.293 HD
ENDBRANCH   6  22
BRANCH   8  24
ATOM     24  O   UNL     1     127.292 120.432 124.486  1.00  0.00    -0.508 OA
ATOM     25  H   UNL     1     127.736 121.197 124.981  1.00  0.00     0.293 HD
ENDBRANCH   8  24
TORSDOF 5
ENDMDL
