MODEL 1
REMARK VINA RESULT:    -2.676      0.000      0.000
REMARK INTER + INTRA:         -12.941
REMARK INTER:                  -6.744
REMARK INTRA:                  -6.197
REMARK UNBOUND:                -6.197
REMARK SMILES CCCCCCCCCCCCCCCCCCCCCCCCCCCC(=O)[O-]
REMARK SMILES IDX 15 1 16 2 17 3 18 4 19 5 20 6 21 7 22 8 23 9 24 10 25 11
REMARK SMILES IDX 26 12 27 13 28 14 29 15 30 16 14 17 13 18 12 19 11 20 10 21
REMARK SMILES IDX 9 22 8 23 7 24 6 25 5 26 4 27 3 28 2 29 1 30
REMARK H PARENT
REMARK Flexibility Score: inf
ROOT
ATOM      1  C   UNL     1      58.364  29.195  51.001  1.00  0.00     0.000 C 
ENDROOT
BRANCH   1   2
ATOM      2  C   UNL     1      56.930  28.892  51.460  1.00  0.00     0.000 C 
BRANCH   2   3
ATOM      3  C   UNL     1      56.143  28.189  50.348  1.00  0.00     0.000 C 
BRANCH   3   4
ATOM      4  C   UNL     1      54.673  28.630  50.338  1.00  0.00     0.000 C 
BRANCH   4   5
ATOM      5  C   UNL     1      53.706  27.500  49.938  1.00  0.00     0.000 C 
BRANCH   5   6
ATOM      6  C   UNL     1      54.398  26.168  49.571  1.00  0.00     0.000 C 
BRANCH   6   7
ATOM      7  C   UNL     1      53.756  24.901  50.179  1.00  0.00     0.000 C 
BRANCH   7   8
ATOM      8  C   UNL     1      53.518  24.931  51.704  1.00  0.00     0.000 C 
BRANCH   8   9
ATOM      9  C   UNL     1      54.783  25.144  52.555  1.00  0.00     0.000 C 
BRANCH   9  10
ATOM     10  C   UNL     1      54.720  26.428  53.400  1.00  0.00     0.000 C 
BRANCH  10  11
ATOM     11  C   UNL     1      53.279  26.966  53.528  1.00  0.00     0.000 C 
BRANCH  11  12
ATOM     12  C   UNL     1      53.198  28.426  54.012  1.00  0.00     0.006 C 
BRANCH  12  13
ATOM     13  C   UNL     1      54.565  29.127  54.136  1.00  0.00     0.053 C 
BRANCH  13  14
ATOM     14  C   UNL     1      54.475  30.617  53.987  1.00  0.00     0.041 C 
ATOM     15  O   UNL     1      54.587  31.153  52.853  1.00  0.00    -0.550 OA
ATOM     16  O   UNL     1      54.348  31.421  55.113  1.00  0.00    -0.550 OA
ENDBRANCH  13  14
ENDBRANCH  12  13
ENDBRANCH  11  12
ENDBRANCH  10  11
ENDBRANCH   9  10
ENDBRANCH   8   9
ENDBRANCH   7   8
ENDBRANCH   6   7
ENDBRANCH   5   6
ENDBRANCH   4   5
ENDBRANCH   3   4
ENDBRANCH   2   3
ENDBRANCH   1   2
BRANCH   1  17
ATOM     17  C   UNL     1      58.499  29.266  49.470  1.00  0.00     0.000 C 
BRANCH  17  18
ATOM     18  C   UNL     1      59.578  28.346  48.862  1.00  0.00     0.000 C 
BRANCH  18  19
ATOM     19  C   UNL     1      60.476  27.596  49.871  1.00  0.00     0.000 C 
BRANCH  19  20
ATOM     20  C   UNL     1      60.251  26.071  49.955  1.00  0.00     0.000 C 
BRANCH  20  21
ATOM     21  C   UNL     1      58.786  25.633  49.788  1.00  0.00     0.000 C 
BRANCH  21  22
ATOM     22  C   UNL     1      58.098  25.300  51.122  1.00  0.00    -0.000 C 
BRANCH  22  23
ATOM     23  C   UNL     1      59.059  25.392  52.322  1.00  0.00    -0.000 C 
BRANCH  23  24
ATOM     24  C   UNL     1      58.400  25.881  53.626  1.00  0.00    -0.000 C 
BRANCH  24  25
ATOM     25  C   UNL     1      58.976  27.220  54.118  1.00  0.00    -0.000 C 
BRANCH  25  26
ATOM     26  C   UNL     1      60.391  27.488  53.563  1.00  0.00    -0.000 C 
BRANCH  26  27
ATOM     27  C   UNL     1      60.874  28.934  53.771  1.00  0.00    -0.000 C 
BRANCH  27  28
ATOM     28  C   UNL     1      61.823  29.412  52.659  1.00  0.00    -0.000 C 
BRANCH  28  29
ATOM     29  C   UNL     1      61.425  30.785  52.096  1.00  0.00    -0.003 C 
ATOM     30  C   UNL     1      61.845  30.968  50.637  1.00  0.00     0.004 C 
ENDBRANCH  28  29
ENDBRANCH  27  28
ENDBRANCH  26  27
ENDBRANCH  25  26
ENDBRANCH  24  25
ENDBRANCH  23  24
ENDBRANCH  22  23
ENDBRANCH  21  22
ENDBRANCH  20  21
ENDBRANCH  19  20
ENDBRANCH  18  19
ENDBRANCH  17  18
ENDBRANCH   1  17
TORSDOF 26
ENDMDL
MODEL 2
REMARK VINA RESULT:    -2.639      9.500     13.605
REMARK INTER + INTRA:         -12.847
REMARK INTER:                  -8.459
REMARK INTRA:                  -4.388
REMARK UNBOUND:                -6.197
REMARK SMILES CCCCCCCCCCCCCCCCCCCCCCCCCCCC(=O)[O-]
REMARK SMILES IDX 15 1 16 2 17 3 18 4 19 5 20 6 21 7 22 8 23 9 24 10 25 11
REMARK SMILES IDX 26 12 27 13 28 14 29 15 30 16 14 17 13 18 12 19 11 20 10 21
REMARK SMILES IDX 9 22 8 23 7 24 6 25 5 26 4 27 3 28 2 29 1 30
REMARK H PARENT
REMARK Flexibility Score: inf
ROOT
ATOM      1  C   UNL     1      62.260  35.639  61.281  1.00  0.00     0.000 C 
ENDROOT
BRANCH   1   2
ATOM      2  C   UNL     1      63.691  36.168  61.458  1.00  0.00     0.000 C 
BRANCH   2   3
ATOM      3  C   UNL     1      64.678  35.008  61.635  1.00  0.00     0.000 C 
BRANCH   3   4
ATOM      4  C   UNL     1      64.418  33.892  60.614  1.00  0.00     0.000 C 
BRANCH   4   5
ATOM      5  C   UNL     1      64.405  32.487  61.244  1.00  0.00     0.000 C 
BRANCH   5   6
ATOM      6  C   UNL     1      64.817  31.351  60.281  1.00  0.00     0.000 C 
BRANCH   6   7
ATOM      7  C   UNL     1      64.532  31.616  58.786  1.00  0.00     0.000 C 
BRANCH   7   8
ATOM      8  C   UNL     1      65.759  31.585  57.850  1.00  0.00     0.000 C 
BRANCH   8   9
ATOM      9  C   UNL     1      66.211  32.958  57.324  1.00  0.00     0.000 C 
BRANCH   9  10
ATOM     10  C   UNL     1      67.680  33.268  57.659  1.00  0.00     0.000 C 
BRANCH  10  11
ATOM     11  C   UNL     1      68.614  32.091  57.307  1.00  0.00     0.000 C 
BRANCH  11  12
ATOM     12  C   UNL     1      69.376  31.516  58.517  1.00  0.00     0.006 C 
BRANCH  12  13
ATOM     13  C   UNL     1      70.849  31.958  58.603  1.00  0.00     0.053 C 
BRANCH  13  14
ATOM     14  C   UNL     1      71.053  33.145  59.497  1.00  0.00     0.041 C 
ATOM     15  O   UNL     1      71.415  32.988  60.693  1.00  0.00    -0.550 OA
ATOM     16  O   UNL     1      70.768  34.422  59.032  1.00  0.00    -0.550 OA
ENDBRANCH  13  14
ENDBRANCH  12  13
ENDBRANCH  11  12
ENDBRANCH  10  11
ENDBRANCH   9  10
ENDBRANCH   8   9
ENDBRANCH   7   8
ENDBRANCH   6   7
ENDBRANCH   5   6
ENDBRANCH   4   5
ENDBRANCH   3   4
ENDBRANCH   2   3
ENDBRANCH   1   2
BRANCH   1  17
ATOM     17  C   UNL     1      61.469  36.403  60.205  1.00  0.00     0.000 C 
BRANCH  17  18
ATOM     18  C   UNL     1      60.232  35.666  59.651  1.00  0.00     0.000 C 
BRANCH  18  19
ATOM     19  C   UNL     1      60.442  34.886  58.334  1.00  0.00     0.000 C 
BRANCH  19  20
ATOM     20  C   UNL     1      61.489  33.752  58.393  1.00  0.00     0.000 C 
BRANCH  20  21
ATOM     21  C   UNL     1      60.901  32.337  58.263  1.00  0.00     0.000 C 
BRANCH  21  22
ATOM     22  C   UNL     1      60.157  31.872  59.526  1.00  0.00    -0.000 C 
BRANCH  22  23
ATOM     23  C   UNL     1      60.995  32.053  60.805  1.00  0.00    -0.000 C 
BRANCH  23  24
ATOM     24  C   UNL     1      60.751  30.977  61.881  1.00  0.00    -0.000 C 
BRANCH  24  25
ATOM     25  C   UNL     1      62.007  30.140  62.181  1.00  0.00    -0.000 C 
BRANCH  25  26
ATOM     26  C   UNL     1      61.918  28.719  61.584  1.00  0.00    -0.000 C 
BRANCH  26  27
ATOM     27  C   UNL     1      62.288  28.652  60.092  1.00  0.00    -0.000 C 
BRANCH  27  28
ATOM     28  C   UNL     1      61.072  28.391  59.187  1.00  0.00    -0.000 C 
BRANCH  28  29
ATOM     29  C   UNL     1      59.894  27.765  59.949  1.00  0.00    -0.003 C 
ATOM     30  C   UNL     1      58.599  28.560  59.788  1.00  0.00     0.004 C 
ENDBRANCH  28  29
ENDBRANCH  27  28
ENDBRANCH  26  27
ENDBRANCH  25  26
ENDBRANCH  24  25
ENDBRANCH  23  24
ENDBRANCH  22  23
ENDBRANCH  21  22
ENDBRANCH  20  21
ENDBRANCH  19  20
ENDBRANCH  18  19
ENDBRANCH  17  18
ENDBRANCH   1  17
TORSDOF 26
ENDMDL
MODEL 3
REMARK VINA RESULT:    -2.639      4.796      7.505
REMARK INTER + INTRA:         -12.846
REMARK INTER:                  -9.518
REMARK INTRA:                  -3.329
REMARK UNBOUND:                -6.197
REMARK SMILES CCCCCCCCCCCCCCCCCCCCCCCCCCCC(=O)[O-]
REMARK SMILES IDX 15 1 16 2 17 3 18 4 19 5 20 6 21 7 22 8 23 9 24 10 25 11
REMARK SMILES IDX 26 12 27 13 28 14 29 15 30 16 14 17 13 18 12 19 11 20 10 21
REMARK SMILES IDX 9 22 8 23 7 24 6 25 5 26 4 27 3 28 2 29 1 30
REMARK H PARENT
REMARK Flexibility Score: inf
ROOT
ATOM      1  C   UNL     1      60.286  26.567  50.302  1.00  0.00     0.000 C 
ENDROOT
BRANCH   1   2
ATOM      2  C   UNL     1      59.600  25.356  49.653  1.00  0.00     0.000 C 
BRANCH   2   3
ATOM      3  C   UNL     1      60.006  24.060  50.364  1.00  0.00     0.000 C 
BRANCH   3   4
ATOM      4  C   UNL     1      61.508  23.786  50.214  1.00  0.00     0.000 C 
BRANCH   4   5
ATOM      5  C   UNL     1      61.831  22.298  49.981  1.00  0.00     0.000 C 
BRANCH   5   6
ATOM      6  C   UNL     1      60.702  21.501  49.290  1.00  0.00     0.000 C 
BRANCH   6   7
ATOM      7  C   UNL     1      60.321  20.168  49.973  1.00  0.00     0.000 C 
BRANCH   7   8
ATOM      8  C   UNL     1      59.216  19.346  49.276  1.00  0.00     0.000 C 
BRANCH   8   9
ATOM      9  C   UNL     1      59.272  17.830  49.536  1.00  0.00     0.000 C 
BRANCH   9  10
ATOM     10  C   UNL     1      57.994  17.296  50.206  1.00  0.00     0.000 C 
BRANCH  10  11
ATOM     11  C   UNL     1      56.892  18.374  50.291  1.00  0.00     0.000 C 
BRANCH  11  12
ATOM     12  C   UNL     1      56.495  18.748  51.732  1.00  0.00     0.006 C 
BRANCH  12  13
ATOM     13  C   UNL     1      55.144  19.481  51.844  1.00  0.00     0.053 C 
BRANCH  13  14
ATOM     14  C   UNL     1      54.674  19.630  53.260  1.00  0.00     0.041 C 
ATOM     15  O   UNL     1      54.675  18.641  54.041  1.00  0.00    -0.550 OA
ATOM     16  O   UNL     1      54.158  20.843  53.698  1.00  0.00    -0.550 OA
ENDBRANCH  13  14
ENDBRANCH  12  13
ENDBRANCH  11  12
ENDBRANCH  10  11
ENDBRANCH   9  10
ENDBRANCH   8   9
ENDBRANCH   7   8
ENDBRANCH   6   7
ENDBRANCH   5   6
ENDBRANCH   4   5
ENDBRANCH   3   4
ENDBRANCH   2   3
ENDBRANCH   1   2
BRANCH   1  17
ATOM     17  C   UNL     1      60.616  27.680  49.293  1.00  0.00     0.000 C 
BRANCH  17  18
ATOM     18  C   UNL     1      59.509  28.736  49.094  1.00  0.00     0.000 C 
BRANCH  18  19
ATOM     19  C   UNL     1      58.140  28.410  49.730  1.00  0.00     0.000 C 
BRANCH  19  20
ATOM     20  C   UNL     1      57.735  29.297  50.928  1.00  0.00     0.000 C 
BRANCH  20  21
ATOM     21  C   UNL     1      58.372  28.886  52.267  1.00  0.00     0.000 C 
BRANCH  21  22
ATOM     22  C   UNL     1      57.419  28.082  53.167  1.00  0.00    -0.000 C 
BRANCH  22  23
ATOM     23  C   UNL     1      57.983  26.698  53.537  1.00  0.00    -0.000 C 
BRANCH  23  24
ATOM     24  C   UNL     1      57.417  25.538  52.695  1.00  0.00    -0.000 C 
BRANCH  24  25
ATOM     25  C   UNL     1      56.081  25.891  52.017  1.00  0.00    -0.000 C 
BRANCH  25  26
ATOM     26  C   UNL     1      56.132  25.689  50.487  1.00  0.00    -0.000 C 
BRANCH  26  27
ATOM     27  C   UNL     1      54.952  26.334  49.739  1.00  0.00    -0.000 C 
BRANCH  27  28
ATOM     28  C   UNL     1      53.962  27.040  50.681  1.00  0.00    -0.000 C 
BRANCH  28  29
ATOM     29  C   UNL     1      53.384  28.327  50.072  1.00  0.00    -0.003 C 
ATOM     30  C   UNL     1      54.134  29.580  50.522  1.00  0.00     0.004 C 
ENDBRANCH  28  29
ENDBRANCH  27  28
ENDBRANCH  26  27
ENDBRANCH  25  26
ENDBRANCH  24  25
ENDBRANCH  23  24
ENDBRANCH  22  23
ENDBRANCH  21  22
ENDBRANCH  20  21
ENDBRANCH  19  20
ENDBRANCH  18  19
ENDBRANCH  17  18
ENDBRANCH   1  17
TORSDOF 26
ENDMDL
MODEL 4
REMARK VINA RESULT:    -2.639      3.738      7.928
REMARK INTER + INTRA:         -12.846
REMARK INTER:                  -8.311
REMARK INTRA:                  -4.534
REMARK UNBOUND:                -6.197
REMARK SMILES CCCCCCCCCCCCCCCCCCCCCCCCCCCC(=O)[O-]
REMARK SMILES IDX 15 1 16 2 17 3 18 4 19 5 20 6 21 7 22 8 23 9 24 10 25 11
REMARK SMILES IDX 26 12 27 13 28 14 29 15 30 16 14 17 13 18 12 19 11 20 10 21
REMARK SMILES IDX 9 22 8 23 7 24 6 25 5 26 4 27 3 28 2 29 1 30
REMARK H PARENT
REMARK Flexibility Score: inf
ROOT
ATOM      1  C   UNL     1      58.874  29.257  49.182  1.00  0.00     0.000 C 
ENDROOT
BRANCH   1   2
ATOM      2  C   UNL     1      59.985  28.225  49.429  1.00  0.00     0.000 C 
BRANCH   2   3
ATOM      3  C   UNL     1      59.456  26.802  49.219  1.00  0.00     0.000 C 
BRANCH   3   4
ATOM      4  C   UNL     1      60.373  25.762  49.877  1.00  0.00     0.000 C 
BRANCH   4   5
ATOM      5  C   UNL     1      61.614  26.385  50.543  1.00  0.00     0.000 C 
BRANCH   5   6
ATOM      6  C   UNL     1      62.958  25.773  50.089  1.00  0.00     0.000 C 
BRANCH   6   7
ATOM      7  C   UNL     1      63.972  26.774  49.493  1.00  0.00     0.000 C 
BRANCH   7   8
ATOM      8  C   UNL     1      63.383  27.859  48.567  1.00  0.00     0.000 C 
BRANCH   8   9
ATOM      9  C   UNL     1      63.698  29.308  48.980  1.00  0.00     0.000 C 
BRANCH   9  10
ATOM     10  C   UNL     1      63.129  29.668  50.363  1.00  0.00     0.000 C 
BRANCH  10  11
ATOM     11  C   UNL     1      62.398  31.027  50.352  1.00  0.00     0.000 C 
BRANCH  11  12
ATOM     12  C   UNL     1      62.784  31.933  49.167  1.00  0.00     0.006 C 
BRANCH  12  13
ATOM     13  C   UNL     1      63.751  33.076  49.535  1.00  0.00     0.053 C 
BRANCH  13  14
ATOM     14  C   UNL     1      64.958  33.130  48.647  1.00  0.00     0.041 C 
ATOM     15  O   UNL     1      65.144  34.113  47.881  1.00  0.00    -0.550 OA
ATOM     16  O   UNL     1      65.840  32.057  48.607  1.00  0.00    -0.550 OA
ENDBRANCH  13  14
ENDBRANCH  12  13
ENDBRANCH  11  12
ENDBRANCH  10  11
ENDBRANCH   9  10
ENDBRANCH   8   9
ENDBRANCH   7   8
ENDBRANCH   6   7
ENDBRANCH   5   6
ENDBRANCH   4   5
ENDBRANCH   3   4
ENDBRANCH   2   3
ENDBRANCH   1   2
BRANCH   1  17
ATOM     17  C   UNL     1      57.649  29.046  50.087  1.00  0.00     0.000 C 
BRANCH  17  18
ATOM     18  C   UNL     1      57.785  29.607  51.518  1.00  0.00     0.000 C 
BRANCH  18  19
ATOM     19  C   UNL     1      57.270  28.696  52.654  1.00  0.00     0.000 C 
BRANCH  19  20
ATOM     20  C   UNL     1      57.655  27.205  52.536  1.00  0.00     0.000 C 
BRANCH  20  21
ATOM     21  C   UNL     1      56.476  26.266  52.233  1.00  0.00     0.000 C 
BRANCH  21  22
ATOM     22  C   UNL     1      56.653  25.477  50.925  1.00  0.00    -0.000 C 
BRANCH  22  23
ATOM     23  C   UNL     1      55.762  26.010  49.788  1.00  0.00    -0.000 C 
BRANCH  23  24
ATOM     24  C   UNL     1      54.362  26.468  50.241  1.00  0.00    -0.000 C 
BRANCH  24  25
ATOM     25  C   UNL     1      54.115  27.965  49.987  1.00  0.00    -0.000 C 
BRANCH  25  26
ATOM     26  C   UNL     1      53.786  28.731  51.287  1.00  0.00    -0.000 C 
BRANCH  26  27
ATOM     27  C   UNL     1      53.883  30.260  51.145  1.00  0.00    -0.000 C 
BRANCH  27  28
ATOM     28  C   UNL     1      53.636  31.000  52.470  1.00  0.00    -0.000 C 
BRANCH  28  29
ATOM     29  C   UNL     1      54.910  31.655  53.025  1.00  0.00    -0.003 C 
ATOM     30  C   UNL     1      55.200  31.251  54.470  1.00  0.00     0.004 C 
ENDBRANCH  28  29
ENDBRANCH  27  28
ENDBRANCH  26  27
ENDBRANCH  25  26
ENDBRANCH  24  25
ENDBRANCH  23  24
ENDBRANCH  22  23
ENDBRANCH  21  22
ENDBRANCH  20  21
ENDBRANCH  19  20
ENDBRANCH  18  19
ENDBRANCH  17  18
ENDBRANCH   1  17
TORSDOF 26
ENDMDL
MODEL 5
REMARK VINA RESULT:    -2.593      8.259     10.946
REMARK INTER + INTRA:         -12.732
REMARK INTER:                  -8.140
REMARK INTRA:                  -4.591
REMARK UNBOUND:                -6.197
REMARK SMILES CCCCCCCCCCCCCCCCCCCCCCCCCCCC(=O)[O-]
REMARK SMILES IDX 15 1 16 2 17 3 18 4 19 5 20 6 21 7 22 8 23 9 24 10 25 11
REMARK SMILES IDX 26 12 27 13 28 14 29 15 30 16 14 17 13 18 12 19 11 20 10 21
REMARK SMILES IDX 9 22 8 23 7 24 6 25 5 26 4 27 3 28 2 29 1 30
REMARK H PARENT
REMARK Flexibility Score: inf
ROOT
ATOM      1  C   UNL     1      64.326  30.573  59.160  1.00  0.00     0.000 C 
ENDROOT
BRANCH   1   2
ATOM      2  C   UNL     1      64.590  31.388  60.435  1.00  0.00     0.000 C 
BRANCH   2   3
ATOM      3  C   UNL     1      63.945  30.713  61.650  1.00  0.00     0.000 C 
BRANCH   3   4
ATOM      4  C   UNL     1      63.648  29.233  61.377  1.00  0.00     0.000 C 
BRANCH   4   5
ATOM      5  C   UNL     1      62.300  28.769  61.960  1.00  0.00     0.000 C 
BRANCH   5   6
ATOM      6  C   UNL     1      61.861  27.358  61.509  1.00  0.00     0.000 C 
BRANCH   6   7
ATOM      7  C   UNL     1      61.408  26.413  62.644  1.00  0.00     0.000 C 
BRANCH   7   8
ATOM      8  C   UNL     1      59.947  25.920  62.567  1.00  0.00     0.000 C 
BRANCH   8   9
ATOM      9  C   UNL     1      58.958  26.913  61.931  1.00  0.00     0.000 C 
BRANCH   9  10
ATOM     10  C   UNL     1      58.284  26.351  60.668  1.00  0.00     0.000 C 
BRANCH  10  11
ATOM     11  C   UNL     1      57.216  25.290  61.006  1.00  0.00     0.000 C 
BRANCH  11  12
ATOM     12  C   UNL     1      55.905  25.879  61.561  1.00  0.00     0.006 C 
BRANCH  12  13
ATOM     13  C   UNL     1      55.368  27.085  60.766  1.00  0.00     0.053 C 
BRANCH  13  14
ATOM     14  C   UNL     1      55.237  28.324  61.601  1.00  0.00     0.041 C 
ATOM     15  O   UNL     1      54.748  29.376  61.111  1.00  0.00    -0.550 OA
ATOM     16  O   UNL     1      55.728  28.342  62.901  1.00  0.00    -0.550 OA
ENDBRANCH  13  14
ENDBRANCH  12  13
ENDBRANCH  11  12
ENDBRANCH  10  11
ENDBRANCH   9  10
ENDBRANCH   8   9
ENDBRANCH   7   8
ENDBRANCH   6   7
ENDBRANCH   5   6
ENDBRANCH   4   5
ENDBRANCH   3   4
ENDBRANCH   2   3
ENDBRANCH   1   2
BRANCH   1  17
ATOM     17  C   UNL     1      63.746  31.422  58.016  1.00  0.00     0.000 C 
BRANCH  17  18
ATOM     18  C   UNL     1      62.358  30.980  57.507  1.00  0.00     0.000 C 
BRANCH  18  19
ATOM     19  C   UNL     1      61.763  29.719  58.172  1.00  0.00     0.000 C 
BRANCH  19  20
ATOM     20  C   UNL     1      60.556  29.966  59.103  1.00  0.00     0.000 C 
BRANCH  20  21
ATOM     21  C   UNL     1      60.252  31.450  59.370  1.00  0.00     0.000 C 
BRANCH  21  22
ATOM     22  C   UNL     1      60.687  31.914  60.770  1.00  0.00    -0.000 C 
BRANCH  22  23
ATOM     23  C   UNL     1      61.447  33.252  60.739  1.00  0.00    -0.000 C 
BRANCH  23  24
ATOM     24  C   UNL     1      61.256  34.060  59.441  1.00  0.00    -0.000 C 
BRANCH  24  25
ATOM     25  C   UNL     1      61.473  35.570  59.642  1.00  0.00    -0.000 C 
BRANCH  25  26
ATOM     26  C   UNL     1      61.711  35.934  61.123  1.00  0.00    -0.000 C 
BRANCH  26  27
ATOM     27  C   UNL     1      63.088  36.567  61.390  1.00  0.00    -0.000 C 
BRANCH  27  28
ATOM     28  C   UNL     1      64.198  35.521  61.584  1.00  0.00    -0.000 C 
BRANCH  28  29
ATOM     29  C   UNL     1      65.294  35.619  60.512  1.00  0.00    -0.003 C 
ATOM     30  C   UNL     1      64.991  34.769  59.278  1.00  0.00     0.004 C 
ENDBRANCH  28  29
ENDBRANCH  27  28
ENDBRANCH  26  27
ENDBRANCH  25  26
ENDBRANCH  24  25
ENDBRANCH  23  24
ENDBRANCH  22  23
ENDBRANCH  21  22
ENDBRANCH  20  21
ENDBRANCH  19  20
ENDBRANCH  18  19
ENDBRANCH  17  18
ENDBRANCH   1  17
TORSDOF 26
ENDMDL
MODEL 6
REMARK VINA RESULT:    -2.551      7.902     11.427
REMARK INTER + INTRA:         -12.625
REMARK INTER:                  -6.895
REMARK INTRA:                  -5.730
REMARK UNBOUND:                -6.197
REMARK SMILES CCCCCCCCCCCCCCCCCCCCCCCCCCCC(=O)[O-]
REMARK SMILES IDX 15 1 16 2 17 3 18 4 19 5 20 6 21 7 22 8 23 9 24 10 25 11
REMARK SMILES IDX 26 12 27 13 28 14 29 15 30 16 14 17 13 18 12 19 11 20 10 21
REMARK SMILES IDX 9 22 8 23 7 24 6 25 5 26 4 27 3 28 2 29 1 30
REMARK H PARENT
REMARK Flexibility Score: inf
ROOT
ATOM      1  C   UNL     1      58.947  29.400  57.596  1.00  0.00     0.000 C 
ENDROOT
BRANCH   1   2
ATOM      2  C   UNL     1      60.153  30.050  58.289  1.00  0.00     0.000 C 
BRANCH   2   3
ATOM      3  C   UNL     1      59.965  30.056  59.810  1.00  0.00     0.000 C 
BRANCH   3   4
ATOM      4  C   UNL     1      60.346  31.414  60.416  1.00  0.00     0.000 C 
BRANCH   4   5
ATOM      5  C   UNL     1      61.097  31.288  61.755  1.00  0.00     0.000 C 
BRANCH   5   6
ATOM      6  C   UNL     1      61.900  29.978  61.916  1.00  0.00     0.000 C 
BRANCH   6   7
ATOM      7  C   UNL     1      63.437  30.134  61.869  1.00  0.00     0.000 C 
BRANCH   7   8
ATOM      8  C   UNL     1      64.113  29.745  60.537  1.00  0.00     0.000 C 
BRANCH   8   9
ATOM      9  C   UNL     1      63.703  30.601  59.325  1.00  0.00     0.000 C 
BRANCH   9  10
ATOM     10  C   UNL     1      64.039  32.091  59.511  1.00  0.00     0.000 C 
BRANCH  10  11
ATOM     11  C   UNL     1      63.121  33.000  58.667  1.00  0.00     0.000 C 
BRANCH  11  12
ATOM     12  C   UNL     1      62.829  34.367  59.315  1.00  0.00     0.006 C 
BRANCH  12  13
ATOM     13  C   UNL     1      62.778  34.338  60.855  1.00  0.00     0.053 C 
BRANCH  13  14
ATOM     14  C   UNL     1      63.677  35.357  61.490  1.00  0.00     0.041 C 
ATOM     15  O   UNL     1      64.798  35.019  61.955  1.00  0.00    -0.550 OA
ATOM     16  O   UNL     1      63.242  36.668  61.642  1.00  0.00    -0.550 OA
ENDBRANCH  13  14
ENDBRANCH  12  13
ENDBRANCH  11  12
ENDBRANCH  10  11
ENDBRANCH   9  10
ENDBRANCH   8   9
ENDBRANCH   7   8
ENDBRANCH   6   7
ENDBRANCH   5   6
ENDBRANCH   4   5
ENDBRANCH   3   4
ENDBRANCH   2   3
ENDBRANCH   1   2
BRANCH   1  17
ATOM     17  C   UNL     1      57.793  29.093  58.566  1.00  0.00     0.000 C 
BRANCH  17  18
ATOM     18  C   UNL     1      57.245  27.653  58.503  1.00  0.00     0.000 C 
BRANCH  18  19
ATOM     19  C   UNL     1      57.245  26.869  59.833  1.00  0.00     0.000 C 
BRANCH  19  20
ATOM     20  C   UNL     1      57.589  27.696  61.092  1.00  0.00     0.000 C 
BRANCH  20  21
ATOM     21  C   UNL     1      58.568  27.007  62.057  1.00  0.00     0.000 C 
BRANCH  21  22
ATOM     22  C   UNL     1      58.323  25.495  62.190  1.00  0.00    -0.000 C 
BRANCH  22  23
ATOM     23  C   UNL     1      59.490  24.766  62.880  1.00  0.00    -0.000 C 
BRANCH  23  24
ATOM     24  C   UNL     1      60.613  25.696  63.379  1.00  0.00    -0.000 C 
BRANCH  24  25
ATOM     25  C   UNL     1      62.003  25.278  62.869  1.00  0.00    -0.000 C 
BRANCH  25  26
ATOM     26  C   UNL     1      62.678  26.387  62.034  1.00  0.00    -0.000 C 
BRANCH  26  27
ATOM     27  C   UNL     1      62.617  26.142  60.517  1.00  0.00    -0.000 C 
BRANCH  27  28
ATOM     28  C   UNL     1      61.469  26.905  59.834  1.00  0.00    -0.000 C 
BRANCH  28  29
ATOM     29  C   UNL     1      60.706  26.039  58.821  1.00  0.00    -0.003 C 
ATOM     30  C   UNL     1      60.488  24.609  59.313  1.00  0.00     0.004 C 
ENDBRANCH  28  29
ENDBRANCH  27  28
ENDBRANCH  26  27
ENDBRANCH  25  26
ENDBRANCH  24  25
ENDBRANCH  23  24
ENDBRANCH  22  23
ENDBRANCH  21  22
ENDBRANCH  20  21
ENDBRANCH  19  20
ENDBRANCH  18  19
ENDBRANCH  17  18
ENDBRANCH   1  17
TORSDOF 26
ENDMDL
MODEL 7
REMARK VINA RESULT:    -2.544      2.955      7.355
REMARK INTER + INTRA:         -12.609
REMARK INTER:                  -7.975
REMARK INTRA:                  -4.633
REMARK UNBOUND:                -6.197
REMARK SMILES CCCCCCCCCCCCCCCCCCCCCCCCCCCC(=O)[O-]
REMARK SMILES IDX 15 1 16 2 17 3 18 4 19 5 20 6 21 7 22 8 23 9 24 10 25 11
REMARK SMILES IDX 26 12 27 13 28 14 29 15 30 16 14 17 13 18 12 19 11 20 10 21
REMARK SMILES IDX 9 22 8 23 7 24 6 25 5 26 4 27 3 28 2 29 1 30
REMARK H PARENT
REMARK Flexibility Score: inf
ROOT
ATOM      1  C   UNL     1      56.219  28.763  53.129  1.00  0.00     0.000 C 
ENDROOT
BRANCH   1   2
ATOM      2  C   UNL     1      57.139  29.823  52.506  1.00  0.00     0.000 C 
BRANCH   2   3
ATOM      3  C   UNL     1      58.192  29.164  51.609  1.00  0.00     0.000 C 
BRANCH   3   4
ATOM      4  C   UNL     1      57.785  29.226  50.130  1.00  0.00     0.000 C 
BRANCH   4   5
ATOM      5  C   UNL     1      58.945  28.901  49.170  1.00  0.00     0.000 C 
BRANCH   5   6
ATOM      6  C   UNL     1      60.319  28.740  49.860  1.00  0.00     0.000 C 
BRANCH   6   7
ATOM      7  C   UNL     1      61.268  27.710  49.208  1.00  0.00     0.000 C 
BRANCH   7   8
ATOM      8  C   UNL     1      62.559  27.393  49.993  1.00  0.00     0.000 C 
BRANCH   8   9
ATOM      9  C   UNL     1      62.951  28.441  51.050  1.00  0.00     0.000 C 
BRANCH   9  10
ATOM     10  C   UNL     1      64.331  29.066  50.783  1.00  0.00     0.000 C 
BRANCH  10  11
ATOM     11  C   UNL     1      64.733  28.965  49.297  1.00  0.00     0.000 C 
BRANCH  11  12
ATOM     12  C   UNL     1      64.375  30.213  48.467  1.00  0.00     0.006 C 
BRANCH  12  13
ATOM     13  C   UNL     1      64.303  31.516  49.286  1.00  0.00     0.053 C 
BRANCH  13  14
ATOM     14  C   UNL     1      62.981  32.214  49.163  1.00  0.00     0.041 C 
ATOM     15  O   UNL     1      61.927  31.662  49.576  1.00  0.00    -0.550 OA
ATOM     16  O   UNL     1      62.902  33.441  48.517  1.00  0.00    -0.550 OA
ENDBRANCH  13  14
ENDBRANCH  12  13
ENDBRANCH  11  12
ENDBRANCH  10  11
ENDBRANCH   9  10
ENDBRANCH   8   9
ENDBRANCH   7   8
ENDBRANCH   6   7
ENDBRANCH   5   6
ENDBRANCH   4   5
ENDBRANCH   3   4
ENDBRANCH   2   3
ENDBRANCH   1   2
BRANCH   1  17
ATOM     17  C   UNL     1      54.728  29.035  52.866  1.00  0.00     0.000 C 
BRANCH  17  18
ATOM     18  C   UNL     1      54.432  30.027  51.722  1.00  0.00     0.000 C 
BRANCH  18  19
ATOM     19  C   UNL     1      54.233  29.406  50.322  1.00  0.00     0.000 C 
BRANCH  19  20
ATOM     20  C   UNL     1      53.089  28.375  50.209  1.00  0.00     0.000 C 
BRANCH  20  21
ATOM     21  C   UNL     1      53.537  26.974  49.760  1.00  0.00     0.000 C 
BRANCH  21  22
ATOM     22  C   UNL     1      55.050  26.745  49.913  1.00  0.00    -0.000 C 
BRANCH  22  23
ATOM     23  C   UNL     1      55.389  25.787  51.068  1.00  0.00    -0.000 C 
BRANCH  23  24
ATOM     24  C   UNL     1      56.895  25.674  51.377  1.00  0.00    -0.000 C 
BRANCH  24  25
ATOM     25  C   UNL     1      57.764  25.661  50.107  1.00  0.00    -0.000 C 
BRANCH  25  26
ATOM     26  C   UNL     1      59.205  25.188  50.391  1.00  0.00    -0.000 C 
BRANCH  26  27
ATOM     27  C   UNL     1      59.696  25.518  51.812  1.00  0.00    -0.000 C 
BRANCH  27  28
ATOM     28  C   UNL     1      60.346  24.313  52.513  1.00  0.00    -0.000 C 
BRANCH  28  29
ATOM     29  C   UNL     1      60.044  22.984  51.804  1.00  0.00    -0.003 C 
ATOM     30  C   UNL     1      58.962  22.170  52.512  1.00  0.00     0.004 C 
ENDBRANCH  28  29
ENDBRANCH  27  28
ENDBRANCH  26  27
ENDBRANCH  25  26
ENDBRANCH  24  25
ENDBRANCH  23  24
ENDBRANCH  22  23
ENDBRANCH  21  22
ENDBRANCH  20  21
ENDBRANCH  19  20
ENDBRANCH  18  19
ENDBRANCH  17  18
ENDBRANCH   1  17
TORSDOF 26
ENDMDL
MODEL 8
REMARK VINA RESULT:    -2.540      8.849     11.699
REMARK INTER + INTRA:         -12.597
REMARK INTER:                  -7.276
REMARK INTRA:                  -5.321
REMARK UNBOUND:                -6.197
REMARK SMILES CCCCCCCCCCCCCCCCCCCCCCCCCCCC(=O)[O-]
REMARK SMILES IDX 15 1 16 2 17 3 18 4 19 5 20 6 21 7 22 8 23 9 24 10 25 11
REMARK SMILES IDX 26 12 27 13 28 14 29 15 30 16 14 17 13 18 12 19 11 20 10 21
REMARK SMILES IDX 9 22 8 23 7 24 6 25 5 26 4 27 3 28 2 29 1 30
REMARK H PARENT
REMARK Flexibility Score: inf
ROOT
ATOM      1  C   UNL     1      58.866  31.543  58.251  1.00  0.00     0.000 C 
ENDROOT
BRANCH   1   2
ATOM      2  C   UNL     1      60.060  30.878  58.952  1.00  0.00     0.000 C 
BRANCH   2   3
ATOM      3  C   UNL     1      59.682  29.479  59.451  1.00  0.00     0.000 C 
BRANCH   3   4
ATOM      4  C   UNL     1      59.966  29.325  60.951  1.00  0.00     0.000 C 
BRANCH   4   5
ATOM      5  C   UNL     1      60.972  30.362  61.485  1.00  0.00     0.000 C 
BRANCH   5   6
ATOM      6  C   UNL     1      62.235  29.753  62.134  1.00  0.00     0.000 C 
BRANCH   6   7
ATOM      7  C   UNL     1      63.539  29.913  61.320  1.00  0.00     0.000 C 
BRANCH   7   8
ATOM      8  C   UNL     1      63.557  29.231  59.936  1.00  0.00     0.000 C 
BRANCH   8   9
ATOM      9  C   UNL     1      63.728  27.702  59.967  1.00  0.00     0.000 C 
BRANCH   9  10
ATOM     10  C   UNL     1      62.423  26.952  59.649  1.00  0.00     0.000 C 
BRANCH  10  11
ATOM     11  C   UNL     1      62.209  25.742  60.582  1.00  0.00     0.000 C 
BRANCH  11  12
ATOM     12  C   UNL     1      62.582  26.014  62.053  1.00  0.00     0.006 C 
BRANCH  12  13
ATOM     13  C   UNL     1      61.375  26.288  62.970  1.00  0.00     0.053 C 
BRANCH  13  14
ATOM     14  C   UNL     1      60.613  25.045  63.323  1.00  0.00     0.041 C 
ATOM     15  O   UNL     1      61.207  24.053  63.822  1.00  0.00    -0.550 OA
ATOM     16  O   UNL     1      59.259  24.953  63.027  1.00  0.00    -0.550 OA
ENDBRANCH  13  14
ENDBRANCH  12  13
ENDBRANCH  11  12
ENDBRANCH  10  11
ENDBRANCH   9  10
ENDBRANCH   8   9
ENDBRANCH   7   8
ENDBRANCH   6   7
ENDBRANCH   5   6
ENDBRANCH   4   5
ENDBRANCH   3   4
ENDBRANCH   2   3
ENDBRANCH   1   2
BRANCH   1  17
ATOM     17  C   UNL     1      59.244  32.850  57.534  1.00  0.00     0.000 C 
BRANCH  17  18
ATOM     18  C   UNL     1      59.766  33.976  58.451  1.00  0.00     0.000 C 
BRANCH  18  19
ATOM     19  C   UNL     1      60.067  35.325  57.763  1.00  0.00     0.000 C 
BRANCH  19  20
ATOM     20  C   UNL     1      61.431  35.415  57.045  1.00  0.00     0.000 C 
BRANCH  20  21
ATOM     21  C   UNL     1      62.369  36.504  57.594  1.00  0.00     0.000 C 
BRANCH  21  22
ATOM     22  C   UNL     1      63.845  36.074  57.620  1.00  0.00    -0.000 C 
BRANCH  22  23
ATOM     23  C   UNL     1      64.023  34.559  57.419  1.00  0.00    -0.000 C 
BRANCH  23  24
ATOM     24  C   UNL     1      65.124  33.928  58.293  1.00  0.00    -0.000 C 
BRANCH  24  25
ATOM     25  C   UNL     1      64.588  32.823  59.220  1.00  0.00    -0.000 C 
BRANCH  25  26
ATOM     26  C   UNL     1      63.085  32.997  59.529  1.00  0.00    -0.000 C 
BRANCH  26  27
ATOM     27  C   UNL     1      62.803  33.523  60.947  1.00  0.00    -0.000 C 
BRANCH  27  28
ATOM     28  C   UNL     1      62.249  34.958  60.952  1.00  0.00    -0.000 C 
BRANCH  28  29
ATOM     29  C   UNL     1      63.315  35.999  61.328  1.00  0.00    -0.003 C 
ATOM     30  C   UNL     1      64.592  35.365  61.878  1.00  0.00     0.004 C 
ENDBRANCH  28  29
ENDBRANCH  27  28
ENDBRANCH  26  27
ENDBRANCH  25  26
ENDBRANCH  24  25
ENDBRANCH  23  24
ENDBRANCH  22  23
ENDBRANCH  21  22
ENDBRANCH  20  21
ENDBRANCH  19  20
ENDBRANCH  18  19
ENDBRANCH  17  18
ENDBRANCH   1  17
TORSDOF 26
ENDMDL
MODEL 9
REMARK VINA RESULT:    -2.513      3.184      7.205
REMARK INTER + INTRA:         -12.530
REMARK INTER:                  -7.223
REMARK INTRA:                  -5.307
REMARK UNBOUND:                -6.197
REMARK SMILES CCCCCCCCCCCCCCCCCCCCCCCCCCCC(=O)[O-]
REMARK SMILES IDX 15 1 16 2 17 3 18 4 19 5 20 6 21 7 22 8 23 9 24 10 25 11
REMARK SMILES IDX 26 12 27 13 28 14 29 15 30 16 14 17 13 18 12 19 11 20 10 21
REMARK SMILES IDX 9 22 8 23 7 24 6 25 5 26 4 27 3 28 2 29 1 30
REMARK H PARENT
REMARK Flexibility Score: inf
ROOT
ATOM      1  C   UNL     1      57.783  28.953  52.172  1.00  0.00     0.000 C 
ENDROOT
BRANCH   1   2
ATOM      2  C   UNL     1      57.904  28.281  50.796  1.00  0.00     0.000 C 
BRANCH   2   3
ATOM      3  C   UNL     1      58.446  29.270  49.758  1.00  0.00     0.000 C 
BRANCH   3   4
ATOM      4  C   UNL     1      59.499  28.612  48.855  1.00  0.00     0.000 C 
BRANCH   4   5
ATOM      5  C   UNL     1      59.782  27.145  49.227  1.00  0.00     0.000 C 
BRANCH   5   6
ATOM      6  C   UNL     1      61.254  26.851  49.594  1.00  0.00     0.000 C 
BRANCH   6   7
ATOM      7  C   UNL     1      61.487  26.347  51.035  1.00  0.00     0.000 C 
BRANCH   7   8
ATOM      8  C   UNL     1      61.261  27.383  52.156  1.00  0.00     0.000 C 
BRANCH   8   9
ATOM      9  C   UNL     1      62.140  28.643  52.064  1.00  0.00     0.000 C 
BRANCH   9  10
ATOM     10  C   UNL     1      61.334  29.943  52.233  1.00  0.00     0.000 C 
BRANCH  10  11
ATOM     11  C   UNL     1      61.480  30.876  51.012  1.00  0.00     0.000 C 
BRANCH  11  12
ATOM     12  C   UNL     1      62.492  30.377  49.963  1.00  0.00     0.006 C 
BRANCH  12  13
ATOM     13  C   UNL     1      63.166  31.501  49.151  1.00  0.00     0.053 C 
BRANCH  13  14
ATOM     14  C   UNL     1      64.466  31.954  49.745  1.00  0.00     0.041 C 
ATOM     15  O   UNL     1      64.932  31.388  50.769  1.00  0.00    -0.550 OA
ATOM     16  O   UNL     1      65.127  33.055  49.214  1.00  0.00    -0.550 OA
ENDBRANCH  13  14
ENDBRANCH  12  13
ENDBRANCH  11  12
ENDBRANCH  10  11
ENDBRANCH   9  10
ENDBRANCH   8   9
ENDBRANCH   7   8
ENDBRANCH   6   7
ENDBRANCH   5   6
ENDBRANCH   4   5
ENDBRANCH   3   4
ENDBRANCH   2   3
ENDBRANCH   1   2
BRANCH   1  17
ATOM     17  C   UNL     1      56.422  29.634  52.388  1.00  0.00     0.000 C 
BRANCH  17  18
ATOM     18  C   UNL     1      55.192  28.720  52.208  1.00  0.00     0.000 C 
BRANCH  18  19
ATOM     19  C   UNL     1      54.219  29.109  51.073  1.00  0.00     0.000 C 
BRANCH  19  20
ATOM     20  C   UNL     1      54.019  28.042  49.975  1.00  0.00     0.000 C 
BRANCH  20  21
ATOM     21  C   UNL     1      55.099  26.948  49.947  1.00  0.00     0.000 C 
BRANCH  21  22
ATOM     22  C   UNL     1      54.535  25.549  49.647  1.00  0.00    -0.000 C 
BRANCH  22  23
ATOM     23  C   UNL     1      53.205  25.280  50.374  1.00  0.00    -0.000 C 
BRANCH  23  24
ATOM     24  C   UNL     1      53.352  24.511  51.701  1.00  0.00    -0.000 C 
BRANCH  24  25
ATOM     25  C   UNL     1      53.505  25.443  52.915  1.00  0.00    -0.000 C 
BRANCH  25  26
ATOM     26  C   UNL     1      54.638  24.990  53.860  1.00  0.00    -0.000 C 
BRANCH  26  27
ATOM     27  C   UNL     1      55.838  24.361  53.131  1.00  0.00    -0.000 C 
BRANCH  27  28
ATOM     28  C   UNL     1      56.913  25.393  52.751  1.00  0.00    -0.000 C 
BRANCH  28  29
ATOM     29  C   UNL     1      57.918  24.846  51.726  1.00  0.00    -0.003 C 
ATOM     30  C   UNL     1      58.920  23.871  52.344  1.00  0.00     0.004 C 
ENDBRANCH  28  29
ENDBRANCH  27  28
ENDBRANCH  26  27
ENDBRANCH  25  26
ENDBRANCH  24  25
ENDBRANCH  23  24
ENDBRANCH  22  23
ENDBRANCH  21  22
ENDBRANCH  20  21
ENDBRANCH  19  20
ENDBRANCH  18  19
ENDBRANCH  17  18
ENDBRANCH   1  17
TORSDOF 26
ENDMDL
