MODEL 1
REMARK VINA RESULT:    -4.632      0.000      0.000
REMARK INTER + INTRA:          -5.175
REMARK INTER:                  -5.580
REMARK INTRA:                   0.404
REMARK UNBOUND:                 0.404
REMARK SMILES O=c1c(O)c(-c2ccc(O)c(O)c2)oc2cc(O)cc(O)c12
REMARK SMILES IDX 5 1 3 2 2 3 1 4 22 5 20 6 19 7 17 8 16 9 15 10 14 11 6 12
REMARK SMILES IDX 7 13 8 14 9 15 13 16 11 17 10 18 12 20 4 22 21 24 18 26
REMARK H PARENT 10 19 12 21 4 23 21 25 18 27
REMARK Flexibility Score: inf
ROOT
ATOM      1  C   UNL     1      19.170  15.574  53.009  1.00  0.00     0.180 A 
ATOM      2  C   UNL     1      18.746  16.186  51.817  1.00  0.00     0.208 A 
ATOM      3  C   UNL     1      17.396  16.088  51.444  1.00  0.00     0.238 A 
ATOM      4  O   UNL     1      17.013  16.684  50.404  1.00  0.00    -0.285 OA
ATOM      5  C   UNL     1      16.490  15.366  52.258  1.00  0.00     0.111 A 
ATOM      6  C   UNL     1      15.110  15.168  51.956  1.00  0.00     0.134 A 
ATOM      7  C   UNL     1      14.279  14.550  52.898  1.00  0.00     0.093 A 
ATOM      8  C   UNL     1      14.790  14.063  54.100  1.00  0.00     0.123 A 
ATOM      9  C   UNL     1      16.151  14.198  54.380  1.00  0.00     0.094 A 
ATOM     10  C   UNL     1      16.998  14.843  53.476  1.00  0.00     0.146 A 
ATOM     11  O   UNL     1      18.284  14.960  53.784  1.00  0.00    -0.452 OA
ENDROOT
BRANCH   1  12
ATOM     12  C   UNL     1      20.582  15.612  53.456  1.00  0.00     0.025 A 
ATOM     13  C   UNL     1      21.045  14.649  54.366  1.00  0.00     0.016 A 
ATOM     14  C   UNL     1      22.378  14.655  54.784  1.00  0.00     0.051 A 
ATOM     15  C   UNL     1      23.271  15.610  54.289  1.00  0.00     0.157 A 
ATOM     16  C   UNL     1      21.487  16.560  52.943  1.00  0.00     0.062 A 
ATOM     17  C   UNL     1      22.826  16.564  53.361  1.00  0.00     0.158 A 
BRANCH  15  18
ATOM     18  O   UNL     1      24.595  15.591  54.727  1.00  0.00    -0.504 OA
ATOM     19  H   UNL     1      24.838  15.450  55.700  1.00  0.00     0.293 HD
ENDBRANCH  15  18
BRANCH  17  20
ATOM     20  O   UNL     1      23.714  17.511  52.852  1.00  0.00    -0.504 OA
ATOM     21  H   UNL     1      23.607  17.893  51.920  1.00  0.00     0.293 HD
ENDBRANCH  17  20
ENDBRANCH   1  12
BRANCH   2  22
ATOM     22  O   UNL     1      19.652  16.912  51.040  1.00  0.00    -0.502 OA
ATOM     23  H   UNL     1      19.365  17.679  50.443  1.00  0.00     0.293 HD
ENDBRANCH   2  22
BRANCH   6  24
ATOM     24  O   UNL     1      14.516  15.534  50.745  1.00  0.00    -0.507 OA
ATOM     25  H   UNL     1      13.699  16.118  50.658  1.00  0.00     0.293 HD
ENDBRANCH   6  24
BRANCH   8  26
ATOM     26  O   UNL     1      13.937  13.438  55.008  1.00  0.00    -0.508 OA
ATOM     27  H   UNL     1      13.414  12.608  54.758  1.00  0.00     0.293 HD
ENDBRANCH   8  26
TORSDOF 6
ENDMDL
MODEL 2
REMARK VINA RESULT:    -4.228      1.301      6.706
REMARK INTER + INTRA:          -4.689
REMARK INTER:                  -4.384
REMARK INTRA:                  -0.304
REMARK UNBOUND:                 0.404
REMARK SMILES O=c1c(O)c(-c2ccc(O)c(O)c2)oc2cc(O)cc(O)c12
REMARK SMILES IDX 5 1 3 2 2 3 1 4 22 5 20 6 19 7 17 8 16 9 15 10 14 11 6 12
REMARK SMILES IDX 7 13 8 14 9 15 13 16 11 17 10 18 12 20 4 22 21 24 18 26
REMARK H PARENT 10 19 12 21 4 23 21 25 18 27
REMARK Flexibility Score: inf
ROOT
ATOM      1  C   UNL     1      18.382  15.298  53.041  1.00  0.00     0.180 A 
ATOM      2  C   UNL     1      18.583  15.813  51.749  1.00  0.00     0.208 A 
ATOM      3  C   UNL     1      19.871  16.222  51.371  1.00  0.00     0.238 A 
ATOM      4  O   UNL     1      20.054  16.632  50.195  1.00  0.00    -0.285 OA
ATOM      5  C   UNL     1      20.940  16.126  52.295  1.00  0.00     0.111 A 
ATOM      6  C   UNL     1      22.278  16.548  52.032  1.00  0.00     0.134 A 
ATOM      7  C   UNL     1      23.282  16.284  52.972  1.00  0.00     0.093 A 
ATOM      8  C   UNL     1      22.985  15.675  54.191  1.00  0.00     0.123 A 
ATOM      9  C   UNL     1      21.669  15.311  54.482  1.00  0.00     0.094 A 
ATOM     10  C   UNL     1      20.653  15.529  53.549  1.00  0.00     0.146 A 
ATOM     11  O   UNL     1      19.417  15.159  53.861  1.00  0.00    -0.452 OA
ENDROOT
BRANCH   1  12
ATOM     12  C   UNL     1      17.047  14.869  53.520  1.00  0.00     0.025 A 
ATOM     13  C   UNL     1      16.255  15.768  54.250  1.00  0.00     0.016 A 
ATOM     14  C   UNL     1      14.984  15.393  54.693  1.00  0.00     0.051 A 
ATOM     15  C   UNL     1      14.480  14.122  54.400  1.00  0.00     0.157 A 
ATOM     16  C   UNL     1      16.531  13.598  53.208  1.00  0.00     0.062 A 
ATOM     17  C   UNL     1      15.254  13.221  53.651  1.00  0.00     0.158 A 
BRANCH  15  18
ATOM     18  O   UNL     1      13.210  13.774  54.858  1.00  0.00    -0.504 OA
ATOM     19  H   UNL     1      12.514  14.471  55.097  1.00  0.00     0.293 HD
ENDBRANCH  15  18
BRANCH  17  20
ATOM     20  O   UNL     1      14.753  11.956  53.344  1.00  0.00    -0.504 OA
ATOM     21  H   UNL     1      13.937  11.837  52.754  1.00  0.00     0.293 HD
ENDBRANCH  17  20
ENDBRANCH   1  12
BRANCH   2  22
ATOM     22  O   UNL     1      17.518  15.879  50.846  1.00  0.00    -0.502 OA
ATOM     23  H   UNL     1      16.565  16.060  51.140  1.00  0.00     0.293 HD
ENDBRANCH   2  22
BRANCH   6  24
ATOM     24  O   UNL     1      22.665  17.248  50.886  1.00  0.00    -0.507 OA
ATOM     25  H   UNL     1      22.712  18.253  50.815  1.00  0.00     0.293 HD
ENDBRANCH   6  24
BRANCH   8  26
ATOM     26  O   UNL     1      24.007  15.441  55.109  1.00  0.00    -0.508 OA
ATOM     27  H   UNL     1      24.860  15.986  55.102  1.00  0.00     0.293 HD
ENDBRANCH   8  26
TORSDOF 6
ENDMDL
MODEL 3
REMARK VINA RESULT:    -4.097      1.466      7.502
REMARK INTER + INTRA:          -4.531
REMARK INTER:                  -4.829
REMARK INTRA:                   0.298
REMARK UNBOUND:                 0.404
REMARK SMILES O=c1c(O)c(-c2ccc(O)c(O)c2)oc2cc(O)cc(O)c12
REMARK SMILES IDX 5 1 3 2 2 3 1 4 22 5 20 6 19 7 17 8 16 9 15 10 14 11 6 12
REMARK SMILES IDX 7 13 8 14 9 15 13 16 11 17 10 18 12 20 4 22 21 24 18 26
REMARK H PARENT 10 19 12 21 4 23 21 25 18 27
REMARK Flexibility Score: inf
ROOT
ATOM      1  C   UNL     1      19.809  16.052  52.891  1.00  0.00     0.180 A 
ATOM      2  C   UNL     1      20.395  15.275  53.905  1.00  0.00     0.208 A 
ATOM      3  C   UNL     1      21.763  15.434  54.180  1.00  0.00     0.238 A 
ATOM      4  O   UNL     1      22.270  14.776  55.125  1.00  0.00    -0.285 OA
ATOM      5  C   UNL     1      22.531  16.355  53.426  1.00  0.00     0.111 A 
ATOM      6  C   UNL     1      23.932  16.568  53.592  1.00  0.00     0.134 A 
ATOM      7  C   UNL     1      24.562  17.598  52.883  1.00  0.00     0.093 A 
ATOM      8  C   UNL     1      23.858  18.377  51.966  1.00  0.00     0.123 A 
ATOM      9  C   UNL     1      22.499  18.138  51.752  1.00  0.00     0.094 A 
ATOM     10  C   UNL     1      21.835  17.142  52.472  1.00  0.00     0.146 A 
ATOM     11  O   UNL     1      20.540  16.953  52.248  1.00  0.00    -0.452 OA
ENDROOT
BRANCH   1  12
ATOM     12  C   UNL     1      18.379  15.922  52.527  1.00  0.00     0.025 A 
ATOM     13  C   UNL     1      17.981  16.145  51.200  1.00  0.00     0.016 A 
ATOM     14  C   UNL     1      16.641  16.008  50.830  1.00  0.00     0.051 A 
ATOM     15  C   UNL     1      15.682  15.631  51.775  1.00  0.00     0.157 A 
ATOM     16  C   UNL     1      17.416  15.522  53.472  1.00  0.00     0.062 A 
ATOM     17  C   UNL     1      16.070  15.382  53.101  1.00  0.00     0.158 A 
BRANCH  15  18
ATOM     18  O   UNL     1      14.351  15.504  51.377  1.00  0.00    -0.504 OA
ATOM     19  H   UNL     1      14.047  14.779  50.738  1.00  0.00     0.293 HD
ENDBRANCH  15  18
BRANCH  17  20
ATOM     20  O   UNL     1      15.122  14.992  54.046  1.00  0.00    -0.504 OA
ATOM     21  H   UNL     1      14.128  15.044  53.854  1.00  0.00     0.293 HD
ENDBRANCH  17  20
ENDBRANCH   1  12
BRANCH   2  22
ATOM     22  O   UNL     1      19.614  14.388  54.651  1.00  0.00    -0.502 OA
ATOM     23  H   UNL     1      19.871  13.417  54.783  1.00  0.00     0.293 HD
ENDBRANCH   2  22
BRANCH   6  24
ATOM     24  O   UNL     1      24.748  15.786  54.414  1.00  0.00    -0.507 OA
ATOM     25  H   UNL     1      24.463  15.387  55.295  1.00  0.00     0.293 HD
ENDBRANCH   6  24
BRANCH   8  26
ATOM     26  O   UNL     1      24.520  19.383  51.266  1.00  0.00    -0.508 OA
ATOM     27  H   UNL     1      25.192  19.990  51.719  1.00  0.00     0.293 HD
ENDBRANCH   8  26
TORSDOF 6
ENDMDL
MODEL 4
REMARK VINA RESULT:    -3.921      2.527      7.337
REMARK INTER + INTRA:          -4.319
REMARK INTER:                  -4.016
REMARK INTRA:                  -0.303
REMARK UNBOUND:                 0.404
REMARK SMILES O=c1c(O)c(-c2ccc(O)c(O)c2)oc2cc(O)cc(O)c12
REMARK SMILES IDX 5 1 3 2 2 3 1 4 22 5 20 6 19 7 17 8 16 9 15 10 14 11 6 12
REMARK SMILES IDX 7 13 8 14 9 15 13 16 11 17 10 18 12 20 4 22 21 24 18 26
REMARK H PARENT 10 19 12 21 4 23 21 25 18 27
REMARK Flexibility Score: inf
ROOT
ATOM      1  C   UNL     1      20.630  16.225  51.898  1.00  0.00     0.180 A 
ATOM      2  C   UNL     1      21.288  15.297  51.073  1.00  0.00     0.208 A 
ATOM      3  C   UNL     1      22.550  15.623  50.551  1.00  0.00     0.238 A 
ATOM      4  O   UNL     1      23.157  14.767  49.858  1.00  0.00    -0.285 OA
ATOM      5  C   UNL     1      23.131  16.881  50.848  1.00  0.00     0.111 A 
ATOM      6  C   UNL     1      24.386  17.332  50.341  1.00  0.00     0.134 A 
ATOM      7  C   UNL     1      24.924  18.539  50.805  1.00  0.00     0.093 A 
ATOM      8  C   UNL     1      24.223  19.340  51.705  1.00  0.00     0.123 A 
ATOM      9  C   UNL     1      22.968  18.936  52.162  1.00  0.00     0.094 A 
ATOM     10  C   UNL     1      22.422  17.720  51.745  1.00  0.00     0.146 A 
ATOM     11  O   UNL     1      21.230  17.367  52.211  1.00  0.00    -0.452 OA
ENDROOT
BRANCH   1  12
ATOM     12  C   UNL     1      19.287  15.962  52.465  1.00  0.00     0.025 A 
ATOM     13  C   UNL     1      19.167  15.604  53.817  1.00  0.00     0.016 A 
ATOM     14  C   UNL     1      17.908  15.372  54.378  1.00  0.00     0.051 A 
ATOM     15  C   UNL     1      16.752  15.510  53.603  1.00  0.00     0.157 A 
ATOM     16  C   UNL     1      18.122  16.120  51.693  1.00  0.00     0.062 A 
ATOM     17  C   UNL     1      16.858  15.890  52.256  1.00  0.00     0.158 A 
BRANCH  15  18
ATOM     18  O   UNL     1      15.510  15.269  54.190  1.00  0.00    -0.504 OA
ATOM     19  H   UNL     1      14.899  16.021  54.484  1.00  0.00     0.293 HD
ENDBRANCH  15  18
BRANCH  17  20
ATOM     20  O   UNL     1      15.709  16.042  51.480  1.00  0.00    -0.504 OA
ATOM     21  H   UNL     1      15.198  16.917  51.454  1.00  0.00     0.293 HD
ENDBRANCH  17  20
ENDBRANCH   1  12
BRANCH   2  22
ATOM     22  O   UNL     1      20.706  14.053  50.811  1.00  0.00    -0.502 OA
ATOM     23  H   UNL     1      20.049  13.909  50.054  1.00  0.00     0.293 HD
ENDBRANCH   2  22
BRANCH   6  24
ATOM     24  O   UNL     1      25.125  16.653  49.368  1.00  0.00    -0.507 OA
ATOM     25  H   UNL     1      25.817  17.078  48.771  1.00  0.00     0.293 HD
ENDBRANCH   6  24
BRANCH   8  26
ATOM     26  O   UNL     1      24.782  20.543  52.134  1.00  0.00    -0.508 OA
ATOM     27  H   UNL     1      25.401  20.584  52.935  1.00  0.00     0.293 HD
ENDBRANCH   8  26
TORSDOF 6
ENDMDL
MODEL 5
REMARK VINA RESULT:    -3.461      1.879      3.451
REMARK INTER + INTRA:          -3.764
REMARK INTER:                  -3.433
REMARK INTRA:                  -0.332
REMARK UNBOUND:                 0.404
REMARK SMILES O=c1c(O)c(-c2ccc(O)c(O)c2)oc2cc(O)cc(O)c12
REMARK SMILES IDX 5 1 3 2 2 3 1 4 22 5 20 6 19 7 17 8 16 9 15 10 14 11 6 12
REMARK SMILES IDX 7 13 8 14 9 15 13 16 11 17 10 18 12 20 4 22 21 24 18 26
REMARK H PARENT 10 19 12 21 4 23 21 25 18 27
REMARK Flexibility Score: inf
ROOT
ATOM      1  C   UNL     1      20.292  16.066  52.335  1.00  0.00     0.180 A 
ATOM      2  C   UNL     1      20.247  15.361  53.551  1.00  0.00     0.208 A 
ATOM      3  C   UNL     1      19.007  14.910  54.031  1.00  0.00     0.238 A 
ATOM      4  O   UNL     1      18.980  14.233  55.091  1.00  0.00    -0.285 OA
ATOM      5  C   UNL     1      17.826  15.182  53.298  1.00  0.00     0.111 A 
ATOM      6  C   UNL     1      16.513  14.808  53.711  1.00  0.00     0.134 A 
ATOM      7  C   UNL     1      15.432  15.013  52.844  1.00  0.00     0.093 A 
ATOM      8  C   UNL     1      15.607  15.639  51.611  1.00  0.00     0.123 A 
ATOM      9  C   UNL     1      16.879  16.063  51.223  1.00  0.00     0.094 A 
ATOM     10  C   UNL     1      17.982  15.839  52.050  1.00  0.00     0.146 A 
ATOM     11  O   UNL     1      19.176  16.248  51.640  1.00  0.00    -0.452 OA
ENDROOT
BRANCH   1  12
ATOM     12  C   UNL     1      21.558  16.594  51.778  1.00  0.00     0.025 A 
ATOM     13  C   UNL     1      22.254  15.847  50.815  1.00  0.00     0.016 A 
ATOM     14  C   UNL     1      23.439  16.336  50.260  1.00  0.00     0.051 A 
ATOM     15  C   UNL     1      23.938  17.584  50.645  1.00  0.00     0.157 A 
ATOM     16  C   UNL     1      22.051  17.859  52.149  1.00  0.00     0.062 A 
ATOM     17  C   UNL     1      23.240  18.352  51.591  1.00  0.00     0.158 A 
BRANCH  15  18
ATOM     18  O   UNL     1      25.125  18.045  50.076  1.00  0.00    -0.504 OA
ATOM     19  H   UNL     1      25.676  17.476  49.444  1.00  0.00     0.293 HD
ENDBRANCH  15  18
BRANCH  17  20
ATOM     20  O   UNL     1      23.724  19.603  51.971  1.00  0.00    -0.504 OA
ATOM     21  H   UNL     1      23.476  20.445  51.464  1.00  0.00     0.293 HD
ENDBRANCH  17  20
ENDBRANCH   1  12
BRANCH   2  22
ATOM     22  O   UNL     1      21.427  15.084  54.247  1.00  0.00    -0.502 OA
ATOM     23  H   UNL     1      21.798  15.704  54.957  1.00  0.00     0.293 HD
ENDBRANCH   2  22
BRANCH   6  24
ATOM     24  O   UNL     1      16.214  14.260  54.962  1.00  0.00    -0.507 OA
ATOM     25  H   UNL     1      15.730  14.745  55.701  1.00  0.00     0.293 HD
ENDBRANCH   6  24
BRANCH   8  26
ATOM     26  O   UNL     1      14.507  15.841  50.780  1.00  0.00    -0.508 OA
ATOM     27  H   UNL     1      14.591  15.805  49.771  1.00  0.00     0.293 HD
ENDBRANCH   8  26
TORSDOF 6
ENDMDL
