MODEL 1
REMARK VINA RESULT:    -5.473      0.000      0.000
REMARK INTER + INTRA:          -6.848
REMARK INTER:                  -6.593
REMARK INTRA:                  -0.255
REMARK UNBOUND:                -0.255
REMARK SMILES Oc1cc(O)c2cc(O)c(-c3ccc(O)c(O)c3)[o+]c2c1.[Cl-]
REMARK SMILES IDX 10 1 19 2 20 3 21 4 2 5 3 6 4 7 6 8 7 9 8 10 11 11 12 12
REMARK SMILES IDX 13 13 14 14 18 15 16 16 15 17 17 19 9 21 1 23 5 25
REMARK H PARENT 15 18 17 20 9 22 1 24 5 26
REMARK Flexibility Score: inf
ROOT
ATOM      1  C   UNL     1      -4.541  91.169 -15.046  1.00  0.00     0.402 A 
ATOM      2  O   UNL     1      -4.220  92.236 -14.316  1.00  0.00    -0.202 OA
ATOM      3  C   UNL     1      -4.338  92.274 -12.992  1.00  0.00     0.368 A 
ATOM      4  C   UNL     1      -3.974  93.433 -12.299  1.00  0.00     0.162 A 
ATOM      5  C   UNL     1      -4.090  93.484 -10.904  1.00  0.00     0.128 A 
ATOM      6  C   UNL     1      -4.573  92.374 -10.203  1.00  0.00     0.093 A 
ATOM      7  C   UNL     1      -4.943  91.206 -10.885  1.00  0.00     0.136 A 
ATOM      8  C   UNL     1      -4.826  91.154 -12.287  1.00  0.00     0.125 A 
ATOM      9  C   UNL     1      -5.188  90.018 -13.020  1.00  0.00     0.078 A 
ATOM     10  C   UNL     1      -5.058  90.020 -14.412  1.00  0.00     0.223 A 
ENDROOT
BRANCH   1  11
ATOM     11  C   UNL     1      -4.357  91.242 -16.513  1.00  0.00     0.087 A 
ATOM     12  C   UNL     1      -3.076  91.255 -17.092  1.00  0.00     0.022 A 
ATOM     13  C   UNL     1      -2.928  91.350 -18.478  1.00  0.00     0.051 A 
ATOM     14  C   UNL     1      -4.054  91.446 -19.305  1.00  0.00     0.157 A 
ATOM     15  C   UNL     1      -5.482  91.361 -17.345  1.00  0.00     0.068 A 
ATOM     16  C   UNL     1      -5.338  91.454 -18.734  1.00  0.00     0.158 A 
BRANCH  14  17
ATOM     17  O   UNL     1      -3.903  91.537 -20.688  1.00  0.00    -0.504 OA
ATOM     18  H   UNL     1      -3.704  92.420 -21.142  1.00  0.00     0.293 HD
ENDBRANCH  14  17
BRANCH  16  19
ATOM     19  O   UNL     1      -6.479  91.556 -19.528  1.00  0.00    -0.504 OA
ATOM     20  H   UNL     1      -7.406  91.652 -19.131  1.00  0.00     0.293 HD
ENDBRANCH  16  19
ENDBRANCH   1  11
BRANCH  10  21
ATOM     21  O   UNL     1      -5.464  88.911 -15.154  1.00  0.00    -0.500 OA
ATOM     22  H   UNL     1      -4.859  88.108 -15.284  1.00  0.00     0.294 HD
ENDBRANCH  10  21
BRANCH   5  23
ATOM     23  O   UNL     1      -3.729  94.634 -10.205  1.00  0.00    -0.507 OA
ATOM     24  H   UNL     1      -3.302  94.585  -9.287  1.00  0.00     0.293 HD
ENDBRANCH   5  23
BRANCH   7  25
ATOM     25  O   UNL     1      -5.425  90.107 -10.174  1.00  0.00    -0.507 OA
ATOM     26  H   UNL     1      -4.803  89.490  -9.663  1.00  0.00     0.293 HD
ENDBRANCH   7  25
TORSDOF 6
ENDMDL
MODEL 2
REMARK VINA RESULT:    -5.232     10.497     11.910
REMARK INTER + INTRA:          -6.557
REMARK INTER:                  -6.204
REMARK INTRA:                  -0.354
REMARK UNBOUND:                -0.255
REMARK SMILES Oc1cc(O)c2cc(O)c(-c3ccc(O)c(O)c3)[o+]c2c1.[Cl-]
REMARK SMILES IDX 10 1 19 2 20 3 21 4 2 5 3 6 4 7 6 8 7 9 8 10 11 11 12 12
REMARK SMILES IDX 13 13 14 14 18 15 16 16 15 17 17 19 9 21 1 23 5 25
REMARK H PARENT 15 18 17 20 9 22 1 24 5 26
REMARK Flexibility Score: inf
ROOT
ATOM      1  C   UNL     1      -9.553  83.580  -8.866  1.00  0.00     0.402 A 
ATOM      2  O   UNL     1      -9.998  84.824  -9.037  1.00  0.00    -0.202 OA
ATOM      3  C   UNL     1     -11.269  85.112  -9.300  1.00  0.00     0.368 A 
ATOM      4  C   UNL     1     -11.657  86.446  -9.461  1.00  0.00     0.162 A 
ATOM      5  C   UNL     1     -12.994  86.763  -9.734  1.00  0.00     0.128 A 
ATOM      6  C   UNL     1     -13.943  85.742  -9.846  1.00  0.00     0.093 A 
ATOM      7  C   UNL     1     -13.569  84.399  -9.688  1.00  0.00     0.136 A 
ATOM      8  C   UNL     1     -12.226  84.081  -9.414  1.00  0.00     0.125 A 
ATOM      9  C   UNL     1     -11.794  82.759  -9.255  1.00  0.00     0.078 A 
ATOM     10  C   UNL     1     -10.447  82.496  -8.989  1.00  0.00     0.223 A 
ENDROOT
BRANCH   1  11
ATOM     11  C   UNL     1      -8.116  83.385  -8.569  1.00  0.00     0.087 A 
ATOM     12  C   UNL     1      -7.638  83.349  -7.248  1.00  0.00     0.022 A 
ATOM     13  C   UNL     1      -6.274  83.188  -6.993  1.00  0.00     0.051 A 
ATOM     14  C   UNL     1      -5.365  83.074  -8.053  1.00  0.00     0.157 A 
ATOM     15  C   UNL     1      -7.198  83.292  -9.628  1.00  0.00     0.068 A 
ATOM     16  C   UNL     1      -5.831  83.129  -9.378  1.00  0.00     0.158 A 
BRANCH  14  17
ATOM     17  O   UNL     1      -4.005  82.910  -7.796  1.00  0.00    -0.504 OA
ATOM     18  H   UNL     1      -3.599  81.993  -7.653  1.00  0.00     0.293 HD
ENDBRANCH  14  17
BRANCH  16  19
ATOM     19  O   UNL     1      -4.952  83.026 -10.454  1.00  0.00    -0.504 OA
ATOM     20  H   UNL     1      -3.950  83.127 -10.344  1.00  0.00     0.293 HD
ENDBRANCH  16  19
ENDBRANCH   1  11
BRANCH  10  21
ATOM     21  O   UNL     1     -10.000  81.180  -8.879  1.00  0.00    -0.500 OA
ATOM     22  H   UNL     1      -9.839  80.603  -9.696  1.00  0.00     0.294 HD
ENDBRANCH  10  21
BRANCH   5  23
ATOM     23  O   UNL     1     -13.389  88.089  -9.896  1.00  0.00    -0.507 OA
ATOM     24  H   UNL     1     -13.692  88.652  -9.109  1.00  0.00     0.293 HD
ENDBRANCH   5  23
BRANCH   7  25
ATOM     25  O   UNL     1     -14.526  83.391  -9.805  1.00  0.00    -0.507 OA
ATOM     26  H   UNL     1     -14.573  82.624  -9.142  1.00  0.00     0.293 HD
ENDBRANCH   7  25
TORSDOF 6
ENDMDL
MODEL 3
REMARK VINA RESULT:    -5.169      4.219      6.640
REMARK INTER + INTRA:          -6.481
REMARK INTER:                  -6.135
REMARK INTRA:                  -0.345
REMARK UNBOUND:                -0.255
REMARK SMILES Oc1cc(O)c2cc(O)c(-c3ccc(O)c(O)c3)[o+]c2c1.[Cl-]
REMARK SMILES IDX 10 1 19 2 20 3 21 4 2 5 3 6 4 7 6 8 7 9 8 10 11 11 12 12
REMARK SMILES IDX 13 13 14 14 18 15 16 16 15 17 17 19 9 21 1 23 5 25
REMARK H PARENT 15 18 17 20 9 22 1 24 5 26
REMARK Flexibility Score: inf
ROOT
ATOM      1  C   UNL     1      -7.938  90.179 -13.232  1.00  0.00     0.402 A 
ATOM      2  O   UNL     1      -7.562  91.241 -13.943  1.00  0.00    -0.202 OA
ATOM      3  C   UNL     1      -6.326  91.409 -14.401  1.00  0.00     0.368 A 
ATOM      4  C   UNL     1      -6.014  92.552 -15.146  1.00  0.00     0.162 A 
ATOM      5  C   UNL     1      -4.715  92.739 -15.637  1.00  0.00     0.128 A 
ATOM      6  C   UNL     1      -3.729  91.781 -15.382  1.00  0.00     0.093 A 
ATOM      7  C   UNL     1      -4.026  90.632 -14.636  1.00  0.00     0.136 A 
ATOM      8  C   UNL     1      -5.331  90.443 -14.142  1.00  0.00     0.125 A 
ATOM      9  C   UNL     1      -5.683  89.320 -13.385  1.00  0.00     0.078 A 
ATOM     10  C   UNL     1      -6.991  89.183 -12.913  1.00  0.00     0.223 A 
ENDROOT
BRANCH   1  11
ATOM     11  C   UNL     1      -9.346  90.098 -12.783  1.00  0.00     0.087 A 
ATOM     12  C   UNL     1      -9.741  90.566 -11.519  1.00  0.00     0.022 A 
ATOM     13  C   UNL     1     -11.073  90.456 -11.108  1.00  0.00     0.051 A 
ATOM     14  C   UNL     1     -12.025  89.866 -11.948  1.00  0.00     0.157 A 
ATOM     15  C   UNL     1     -10.301  89.487 -13.613  1.00  0.00     0.068 A 
ATOM     16  C   UNL     1     -11.635  89.376 -13.206  1.00  0.00     0.158 A 
BRANCH  14  17
ATOM     17  O   UNL     1     -13.353  89.760 -11.537  1.00  0.00    -0.504 OA
ATOM     18  H   UNL     1     -13.788  88.859 -11.374  1.00  0.00     0.293 HD
ENDBRANCH  14  17
BRANCH  16  19
ATOM     19  O   UNL     1     -12.557  88.776 -14.062  1.00  0.00    -0.504 OA
ATOM     20  H   UNL     1     -12.286  88.384 -14.957  1.00  0.00     0.293 HD
ENDBRANCH  16  19
ENDBRANCH   1  11
BRANCH  10  21
ATOM     21  O   UNL     1      -7.336  88.092 -12.116  1.00  0.00    -0.500 OA
ATOM     22  H   UNL     1      -8.286  87.742 -12.075  1.00  0.00     0.294 HD
ENDBRANCH  10  21
BRANCH   5  23
ATOM     23  O   UNL     1      -4.397  93.873 -16.380  1.00  0.00    -0.507 OA
ATOM     24  H   UNL     1      -3.760  94.578 -16.027  1.00  0.00     0.293 HD
ENDBRANCH   5  23
BRANCH   7  25
ATOM     25  O   UNL     1      -3.032  89.686 -14.386  1.00  0.00    -0.507 OA
ATOM     26  H   UNL     1      -3.204  88.874 -13.803  1.00  0.00     0.293 HD
ENDBRANCH   7  25
TORSDOF 6
ENDMDL
MODEL 4
REMARK VINA RESULT:    -5.152      1.432      1.539
REMARK INTER + INTRA:          -6.461
REMARK INTER:                  -6.110
REMARK INTRA:                  -0.351
REMARK UNBOUND:                -0.255
REMARK SMILES Oc1cc(O)c2cc(O)c(-c3ccc(O)c(O)c3)[o+]c2c1.[Cl-]
REMARK SMILES IDX 10 1 19 2 20 3 21 4 2 5 3 6 4 7 6 8 7 9 8 10 11 11 12 12
REMARK SMILES IDX 13 13 14 14 18 15 16 16 15 17 17 19 9 21 1 23 5 25
REMARK H PARENT 15 18 17 20 9 22 1 24 5 26
REMARK Flexibility Score: inf
ROOT
ATOM      1  C   UNL     1      -4.450  92.076 -15.061  1.00  0.00     0.402 A 
ATOM      2  O   UNL     1      -5.029  93.171 -14.571  1.00  0.00    -0.202 OA
ATOM      3  C   UNL     1      -5.184  93.393 -13.270  1.00  0.00     0.368 A 
ATOM      4  C   UNL     1      -5.798  94.573 -12.838  1.00  0.00     0.162 A 
ATOM      5  C   UNL     1      -5.963  94.820 -11.469  1.00  0.00     0.128 A 
ATOM      6  C   UNL     1      -5.513  93.884 -10.532  1.00  0.00     0.093 A 
ATOM      7  C   UNL     1      -4.897  92.696 -10.951  1.00  0.00     0.136 A 
ATOM      8  C   UNL     1      -4.730  92.447 -12.326  1.00  0.00     0.125 A 
ATOM      9  C   UNL     1      -4.129  91.276 -12.801  1.00  0.00     0.078 A 
ATOM     10  C   UNL     1      -3.993  91.075 -14.178  1.00  0.00     0.223 A 
ENDROOT
BRANCH   1  11
ATOM     11  C   UNL     1      -4.326  91.944 -16.530  1.00  0.00     0.087 A 
ATOM     12  C   UNL     1      -3.143  92.299 -17.201  1.00  0.00     0.022 A 
ATOM     13  C   UNL     1      -3.059  92.189 -18.592  1.00  0.00     0.051 A 
ATOM     14  C   UNL     1      -4.158  91.737 -19.333  1.00  0.00     0.157 A 
ATOM     15  C   UNL     1      -5.432  91.512 -17.281  1.00  0.00     0.068 A 
ATOM     16  C   UNL     1      -5.352  91.400 -18.673  1.00  0.00     0.158 A 
BRANCH  14  17
ATOM     17  O   UNL     1      -4.070  91.626 -20.719  1.00  0.00    -0.504 OA
ATOM     18  H   UNL     1      -3.416  92.184 -21.256  1.00  0.00     0.293 HD
ENDBRANCH  14  17
BRANCH  16  19
ATOM     19  O   UNL     1      -6.465  90.954 -19.382  1.00  0.00    -0.504 OA
ATOM     20  H   UNL     1      -7.377  90.860 -18.951  1.00  0.00     0.293 HD
ENDBRANCH  16  19
ENDBRANCH   1  11
BRANCH  10  21
ATOM     21  O   UNL     1      -3.441  89.888 -14.660  1.00  0.00    -0.500 OA
ATOM     22  H   UNL     1      -2.610  89.482 -14.247  1.00  0.00     0.294 HD
ENDBRANCH  10  21
BRANCH   5  23
ATOM     23  O   UNL     1      -6.574  95.993 -11.030  1.00  0.00    -0.507 OA
ATOM     24  H   UNL     1      -6.921  96.088 -10.083  1.00  0.00     0.293 HD
ENDBRANCH   5  23
BRANCH   7  25
ATOM     25  O   UNL     1      -4.455  91.770 -10.006  1.00  0.00    -0.507 OA
ATOM     26  H   UNL     1      -4.995  91.560  -9.173  1.00  0.00     0.293 HD
ENDBRANCH   7  25
TORSDOF 6
ENDMDL
MODEL 5
REMARK VINA RESULT:    -5.101     10.674     12.098
REMARK INTER + INTRA:          -6.399
REMARK INTER:                  -6.107
REMARK INTRA:                  -0.292
REMARK UNBOUND:                -0.255
REMARK SMILES Oc1cc(O)c2cc(O)c(-c3ccc(O)c(O)c3)[o+]c2c1.[Cl-]
REMARK SMILES IDX 10 1 19 2 20 3 21 4 2 5 3 6 4 7 6 8 7 9 8 10 11 11 12 12
REMARK SMILES IDX 13 13 14 14 18 15 16 16 15 17 17 19 9 21 1 23 5 25
REMARK H PARENT 15 18 17 20 9 22 1 24 5 26
REMARK Flexibility Score: inf
ROOT
ATOM      1  C   UNL     1      -9.090  83.497  -8.368  1.00  0.00     0.402 A 
ATOM      2  O   UNL     1      -8.104  83.243  -9.228  1.00  0.00    -0.202 OA
ATOM      3  C   UNL     1      -6.827  83.167  -8.868  1.00  0.00     0.368 A 
ATOM      4  C   UNL     1      -5.853  82.890  -9.832  1.00  0.00     0.162 A 
ATOM      5  C   UNL     1      -4.503  82.804  -9.465  1.00  0.00     0.128 A 
ATOM      6  C   UNL     1      -4.130  82.995  -8.131  1.00  0.00     0.093 A 
ATOM      7  C   UNL     1      -5.096  83.275  -7.153  1.00  0.00     0.136 A 
ATOM      8  C   UNL     1      -6.452  83.362  -7.522  1.00  0.00     0.125 A 
ATOM      9  C   UNL     1      -7.457  83.646  -6.591  1.00  0.00     0.078 A 
ATOM     10  C   UNL     1      -8.789  83.726  -7.009  1.00  0.00     0.223 A 
ENDROOT
BRANCH   1  11
ATOM     11  C   UNL     1     -10.476  83.549  -8.886  1.00  0.00     0.087 A 
ATOM     12  C   UNL     1     -11.145  84.770  -9.070  1.00  0.00     0.022 A 
ATOM     13  C   UNL     1     -12.462  84.792  -9.537  1.00  0.00     0.051 A 
ATOM     14  C   UNL     1     -13.134  83.594  -9.814  1.00  0.00     0.157 A 
ATOM     15  C   UNL     1     -11.162  82.350  -9.145  1.00  0.00     0.068 A 
ATOM     16  C   UNL     1     -12.480  82.367  -9.613  1.00  0.00     0.158 A 
BRANCH  14  17
ATOM     17  O   UNL     1     -14.446  83.619 -10.282  1.00  0.00    -0.504 OA
ATOM     18  H   UNL     1     -14.948  82.766 -10.502  1.00  0.00     0.293 HD
ENDBRANCH  14  17
BRANCH  16  19
ATOM     19  O   UNL     1     -13.123  81.158  -9.872  1.00  0.00    -0.504 OA
ATOM     20  H   UNL     1     -13.960  80.875  -9.376  1.00  0.00     0.293 HD
ENDBRANCH  16  19
ENDBRANCH   1  11
BRANCH  10  21
ATOM     21  O   UNL     1      -9.790  84.059  -6.097  1.00  0.00    -0.500 OA
ATOM     22  H   UNL     1      -9.626  84.717  -5.345  1.00  0.00     0.294 HD
ENDBRANCH  10  21
BRANCH   5  23
ATOM     23  O   UNL     1      -3.526  82.528 -10.419  1.00  0.00    -0.507 OA
ATOM     24  H   UNL     1      -3.720  81.944 -11.223  1.00  0.00     0.293 HD
ENDBRANCH   5  23
BRANCH   7  25
ATOM     25  O   UNL     1      -4.710  83.467  -5.826  1.00  0.00    -0.507 OA
ATOM     26  H   UNL     1      -5.344  83.862  -5.140  1.00  0.00     0.293 HD
ENDBRANCH   7  25
TORSDOF 6
ENDMDL
MODEL 6
REMARK VINA RESULT:    -4.998      9.634     12.488
REMARK INTER + INTRA:          -6.275
REMARK INTER:                  -5.928
REMARK INTRA:                  -0.347
REMARK UNBOUND:                -0.255
REMARK SMILES Oc1cc(O)c2cc(O)c(-c3ccc(O)c(O)c3)[o+]c2c1.[Cl-]
REMARK SMILES IDX 10 1 19 2 20 3 21 4 2 5 3 6 4 7 6 8 7 9 8 10 11 11 12 12
REMARK SMILES IDX 13 13 14 14 18 15 16 16 15 17 17 19 9 21 1 23 5 25
REMARK H PARENT 15 18 17 20 9 22 1 24 5 26
REMARK Flexibility Score: inf
ROOT
ATOM      1  C   UNL     1      -8.979  83.230  -8.108  1.00  0.00     0.402 A 
ATOM      2  O   UNL     1      -9.967  83.485  -8.965  1.00  0.00    -0.202 OA
ATOM      3  C   UNL     1     -11.215  83.064  -8.784  1.00  0.00     0.368 A 
ATOM      4  C   UNL     1     -12.195  83.379  -9.730  1.00  0.00     0.162 A 
ATOM      5  C   UNL     1     -13.514  82.943  -9.548  1.00  0.00     0.128 A 
ATOM      6  C   UNL     1     -13.851  82.191  -8.418  1.00  0.00     0.093 A 
ATOM      7  C   UNL     1     -12.878  81.866  -7.462  1.00  0.00     0.136 A 
ATOM      8  C   UNL     1     -11.552  82.304  -7.644  1.00  0.00     0.125 A 
ATOM      9  C   UNL     1     -10.539  82.003  -6.727  1.00  0.00     0.078 A 
ATOM     10  C   UNL     1      -9.237  82.456  -6.957  1.00  0.00     0.223 A 
ENDROOT
BRANCH   1  11
ATOM     11  C   UNL     1      -7.632  83.761  -8.413  1.00  0.00     0.087 A 
ATOM     12  C   UNL     1      -7.162  84.950  -7.830  1.00  0.00     0.022 A 
ATOM     13  C   UNL     1      -5.896  85.445  -8.153  1.00  0.00     0.051 A 
ATOM     14  C   UNL     1      -5.085  84.766  -9.072  1.00  0.00     0.157 A 
ATOM     15  C   UNL     1      -6.823  83.096  -9.350  1.00  0.00     0.068 A 
ATOM     16  C   UNL     1      -5.554  83.587  -9.676  1.00  0.00     0.158 A 
BRANCH  14  17
ATOM     17  O   UNL     1      -3.821  85.260  -9.390  1.00  0.00    -0.504 OA
ATOM     18  H   UNL     1      -3.366  85.029 -10.265  1.00  0.00     0.293 HD
ENDBRANCH  14  17
BRANCH  16  19
ATOM     19  O   UNL     1      -4.775  82.892 -10.599  1.00  0.00    -0.504 OA
ATOM     20  H   UNL     1      -4.439  81.953 -10.423  1.00  0.00     0.293 HD
ENDBRANCH  16  19
ENDBRANCH   1  11
BRANCH  10  21
ATOM     21  O   UNL     1      -8.212  82.117  -6.074  1.00  0.00    -0.500 OA
ATOM     22  H   UNL     1      -8.174  81.209  -5.628  1.00  0.00     0.294 HD
ENDBRANCH  10  21
BRANCH   5  23
ATOM     23  O   UNL     1     -14.498  83.253 -10.485  1.00  0.00    -0.507 OA
ATOM     24  H   UNL     1     -14.278  83.754 -11.339  1.00  0.00     0.293 HD
ENDBRANCH   5  23
BRANCH   7  25
ATOM     25  O   UNL     1     -13.227  81.113  -6.340  1.00  0.00    -0.507 OA
ATOM     26  H   UNL     1     -14.117  80.630  -6.281  1.00  0.00     0.293 HD
ENDBRANCH   7  25
TORSDOF 6
ENDMDL
MODEL 7
REMARK VINA RESULT:    -4.990      8.832     11.907
REMARK INTER + INTRA:          -6.265
REMARK INTER:                  -5.964
REMARK INTRA:                  -0.301
REMARK UNBOUND:                -0.255
REMARK SMILES Oc1cc(O)c2cc(O)c(-c3ccc(O)c(O)c3)[o+]c2c1.[Cl-]
REMARK SMILES IDX 10 1 19 2 20 3 21 4 2 5 3 6 4 7 6 8 7 9 8 10 11 11 12 12
REMARK SMILES IDX 13 13 14 14 18 15 16 16 15 17 17 19 9 21 1 23 5 25
REMARK H PARENT 15 18 17 20 9 22 1 24 5 26
REMARK Flexibility Score: inf
ROOT
ATOM      1  C   UNL     1     -10.041  84.413  -8.927  1.00  0.00     0.402 A 
ATOM      2  O   UNL     1      -9.006  83.634  -9.241  1.00  0.00    -0.202 OA
ATOM      3  C   UNL     1      -7.778  84.102  -9.440  1.00  0.00     0.368 A 
ATOM      4  C   UNL     1      -6.745  83.216  -9.762  1.00  0.00     0.162 A 
ATOM      5  C   UNL     1      -5.445  83.696  -9.971  1.00  0.00     0.128 A 
ATOM      6  C   UNL     1      -5.181  85.065  -9.858  1.00  0.00     0.093 A 
ATOM      7  C   UNL     1      -6.208  85.966  -9.538  1.00  0.00     0.136 A 
ATOM      8  C   UNL     1      -7.513  85.484  -9.328  1.00  0.00     0.125 A 
ATOM      9  C   UNL     1      -8.578  86.336  -9.014  1.00  0.00     0.078 A 
ATOM     10  C   UNL     1      -9.858  85.807  -8.820  1.00  0.00     0.223 A 
ENDROOT
BRANCH   1  11
ATOM     11  C   UNL     1     -11.361  83.775  -8.720  1.00  0.00     0.087 A 
ATOM     12  C   UNL     1     -11.655  83.062  -7.545  1.00  0.00     0.022 A 
ATOM     13  C   UNL     1     -12.899  82.448  -7.383  1.00  0.00     0.051 A 
ATOM     14  C   UNL     1     -13.863  82.525  -8.396  1.00  0.00     0.157 A 
ATOM     15  C   UNL     1     -12.323  83.831  -9.742  1.00  0.00     0.068 A 
ATOM     16  C   UNL     1     -13.571  83.219  -9.583  1.00  0.00     0.158 A 
BRANCH  14  17
ATOM     17  O   UNL     1     -15.105  81.914  -8.231  1.00  0.00    -0.504 OA
ATOM     18  H   UNL     1     -15.635  82.014  -7.373  1.00  0.00     0.293 HD
ENDBRANCH  14  17
BRANCH  16  19
ATOM     19  O   UNL     1     -14.505  83.308 -10.613  1.00  0.00    -0.504 OA
ATOM     20  H   UNL     1     -15.129  82.543 -10.843  1.00  0.00     0.293 HD
ENDBRANCH  16  19
ENDBRANCH   1  11
BRANCH  10  21
ATOM     21  O   UNL     1     -10.932  86.656  -8.557  1.00  0.00    -0.500 OA
ATOM     22  H   UNL     1     -11.712  86.740  -9.198  1.00  0.00     0.294 HD
ENDBRANCH  10  21
BRANCH   5  23
ATOM     23  O   UNL     1      -4.410  82.821 -10.290  1.00  0.00    -0.507 OA
ATOM     24  H   UNL     1      -3.735  82.522  -9.596  1.00  0.00     0.293 HD
ENDBRANCH   5  23
BRANCH   7  25
ATOM     25  O   UNL     1      -5.931  87.329  -9.431  1.00  0.00    -0.507 OA
ATOM     26  H   UNL     1      -6.610  87.981  -9.052  1.00  0.00     0.293 HD
ENDBRANCH   7  25
TORSDOF 6
ENDMDL
MODEL 8
REMARK VINA RESULT:    -4.951      1.407      6.972
REMARK INTER + INTRA:          -6.219
REMARK INTER:                  -5.868
REMARK INTRA:                  -0.351
REMARK UNBOUND:                -0.255
REMARK SMILES Oc1cc(O)c2cc(O)c(-c3ccc(O)c(O)c3)[o+]c2c1.[Cl-]
REMARK SMILES IDX 10 1 19 2 20 3 21 4 2 5 3 6 4 7 6 8 7 9 8 10 11 11 12 12
REMARK SMILES IDX 13 13 14 14 18 15 16 16 15 17 17 19 9 21 1 23 5 25
REMARK H PARENT 15 18 17 20 9 22 1 24 5 26
REMARK Flexibility Score: inf
ROOT
ATOM      1  C   UNL     1      -4.833  91.437 -14.638  1.00  0.00     0.402 A 
ATOM      2  O   UNL     1      -5.691  92.173 -15.343  1.00  0.00    -0.202 OA
ATOM      3  C   UNL     1      -5.669  92.243 -16.671  1.00  0.00     0.368 A 
ATOM      4  C   UNL     1      -6.608  93.036 -17.337  1.00  0.00     0.162 A 
ATOM      5  C   UNL     1      -6.598  93.115 -18.735  1.00  0.00     0.128 A 
ATOM      6  C   UNL     1      -5.645  92.399 -19.467  1.00  0.00     0.093 A 
ATOM      7  C   UNL     1      -4.695  91.601 -18.812  1.00  0.00     0.136 A 
ATOM      8  C   UNL     1      -4.705  91.521 -17.407  1.00  0.00     0.125 A 
ATOM      9  C   UNL     1      -3.778  90.747 -16.701  1.00  0.00     0.078 A 
ATOM     10  C   UNL     1      -3.828  90.706 -15.304  1.00  0.00     0.223 A 
ENDROOT
BRANCH   1  11
ATOM     11  C   UNL     1      -4.963  91.431 -13.163  1.00  0.00     0.087 A 
ATOM     12  C   UNL     1      -5.660  90.412 -12.491  1.00  0.00     0.022 A 
ATOM     13  C   UNL     1      -5.789  90.441 -11.100  1.00  0.00     0.051 A 
ATOM     14  C   UNL     1      -5.236  91.495 -10.361  1.00  0.00     0.157 A 
ATOM     15  C   UNL     1      -4.428  92.496 -12.418  1.00  0.00     0.068 A 
ATOM     16  C   UNL     1      -4.555  92.529 -11.026  1.00  0.00     0.158 A 
BRANCH  14  17
ATOM     17  O   UNL     1      -5.364  91.520  -8.974  1.00  0.00    -0.504 OA
ATOM     18  H   UNL     1      -5.784  90.751  -8.465  1.00  0.00     0.293 HD
ENDBRANCH  14  17
BRANCH  16  19
ATOM     19  O   UNL     1      -3.999  93.595 -10.320  1.00  0.00    -0.504 OA
ATOM     20  H   UNL     1      -4.434  93.976  -9.488  1.00  0.00     0.293 HD
ENDBRANCH  16  19
ENDBRANCH   1  11
BRANCH  10  21
ATOM     21  O   UNL     1      -2.876  89.978 -14.592  1.00  0.00    -0.500 OA
ATOM     22  H   UNL     1      -2.284  90.415 -13.896  1.00  0.00     0.294 HD
ENDBRANCH  10  21
BRANCH   5  23
ATOM     23  O   UNL     1      -7.530  93.902 -19.407  1.00  0.00    -0.507 OA
ATOM     24  H   UNL     1      -8.489  93.979 -19.086  1.00  0.00     0.293 HD
ENDBRANCH   5  23
BRANCH   7  25
ATOM     25  O   UNL     1      -3.748  90.894 -19.554  1.00  0.00    -0.507 OA
ATOM     26  H   UNL     1      -3.954  89.982 -19.948  1.00  0.00     0.293 HD
ENDBRANCH   7  25
TORSDOF 6
ENDMDL
MODEL 9
REMARK VINA RESULT:    -4.936      1.417      3.067
REMARK INTER + INTRA:          -6.200
REMARK INTER:                  -5.973
REMARK INTRA:                  -0.227
REMARK UNBOUND:                -0.255
REMARK SMILES Oc1cc(O)c2cc(O)c(-c3ccc(O)c(O)c3)[o+]c2c1.[Cl-]
REMARK SMILES IDX 10 1 19 2 20 3 21 4 2 5 3 6 4 7 6 8 7 9 8 10 11 11 12 12
REMARK SMILES IDX 13 13 14 14 18 15 16 16 15 17 17 19 9 21 1 23 5 25
REMARK H PARENT 15 18 17 20 9 22 1 24 5 26
REMARK Flexibility Score: inf
ROOT
ATOM      1  C   UNL     1      -4.885  90.969 -14.782  1.00  0.00     0.402 A 
ATOM      2  O   UNL     1      -5.426  89.852 -14.298  1.00  0.00    -0.202 OA
ATOM      3  C   UNL     1      -5.774  89.705 -13.023  1.00  0.00     0.368 A 
ATOM      4  C   UNL     1      -6.342  88.500 -12.597  1.00  0.00     0.162 A 
ATOM      5  C   UNL     1      -6.716  88.334 -11.256  1.00  0.00     0.128 A 
ATOM      6  C   UNL     1      -6.521  89.376 -10.344  1.00  0.00     0.093 A 
ATOM      7  C   UNL     1      -5.951  90.589 -10.757  1.00  0.00     0.136 A 
ATOM      8  C   UNL     1      -5.575  90.757 -12.103  1.00  0.00     0.125 A 
ATOM      9  C   UNL     1      -4.996  91.942 -12.570  1.00  0.00     0.078 A 
ATOM     10  C   UNL     1      -4.635  92.055 -13.916  1.00  0.00     0.223 A 
ENDROOT
BRANCH   1  11
ATOM     11  C   UNL     1      -4.547  91.018 -16.222  1.00  0.00     0.087 A 
ATOM     12  C   UNL     1      -3.213  91.070 -16.661  1.00  0.00     0.022 A 
ATOM     13  C   UNL     1      -2.920  91.141 -18.026  1.00  0.00     0.051 A 
ATOM     14  C   UNL     1      -3.954  91.173 -18.971  1.00  0.00     0.157 A 
ATOM     15  C   UNL     1      -5.580  91.073 -17.173  1.00  0.00     0.068 A 
ATOM     16  C   UNL     1      -5.291  91.142 -18.540  1.00  0.00     0.158 A 
BRANCH  14  17
ATOM     17  O   UNL     1      -3.658  91.240 -20.331  1.00  0.00    -0.504 OA
ATOM     18  H   UNL     1      -4.133  90.654 -21.007  1.00  0.00     0.293 HD
ENDBRANCH  14  17
BRANCH  16  19
ATOM     19  O   UNL     1      -6.343  91.180 -19.454  1.00  0.00    -0.504 OA
ATOM     20  H   UNL     1      -6.221  91.518 -20.401  1.00  0.00     0.293 HD
ENDBRANCH  16  19
ENDBRANCH   1  11
BRANCH  10  21
ATOM     21  O   UNL     1      -4.011  93.213 -14.378  1.00  0.00    -0.500 OA
ATOM     22  H   UNL     1      -3.523  93.237 -15.265  1.00  0.00     0.294 HD
ENDBRANCH  10  21
BRANCH   5  23
ATOM     23  O   UNL     1      -7.283  87.138 -10.823  1.00  0.00    -0.507 OA
ATOM     24  H   UNL     1      -7.100  86.770  -9.896  1.00  0.00     0.293 HD
ENDBRANCH   5  23
BRANCH   7  25
ATOM     25  O   UNL     1      -5.760  91.619  -9.836  1.00  0.00    -0.507 OA
ATOM     26  H   UNL     1      -6.433  91.807  -9.101  1.00  0.00     0.293 HD
ENDBRANCH   7  25
TORSDOF 6
ENDMDL
