MODEL 1
REMARK VINA RESULT:    -5.021      0.000      0.000
REMARK INTER + INTRA:          -8.485
REMARK INTER:                  -7.956
REMARK INTRA:                  -0.530
REMARK UNBOUND:                -0.530
REMARK SMILES CCCCCCCCCCCC(=O)[O-]
REMARK SMILES IDX 7 1 8 2 9 3 10 4 11 5 12 6 13 7 14 8 6 9 5 10 4 11 3 12 2 13
REMARK SMILES IDX 1 14
REMARK H PARENT
REMARK Flexibility Score: inf
ROOT
ATOM      1  C   UNL     1      41.154  66.530  25.469  1.00  0.00     0.000 C 
ENDROOT
BRANCH   1   2
ATOM      2  C   UNL     1      41.400  65.980  24.052  1.00  0.00     0.000 C 
BRANCH   2   3
ATOM      3  C   UNL     1      41.589  64.454  24.036  1.00  0.00     0.000 C 
BRANCH   3   4
ATOM      4  C   UNL     1      42.094  63.905  25.383  1.00  0.00     0.006 C 
BRANCH   4   5
ATOM      5  C   UNL     1      42.231  62.377  25.368  1.00  0.00     0.053 C 
BRANCH   5   6
ATOM      6  C   UNL     1      43.452  61.920  26.107  1.00  0.00     0.041 C 
ATOM      7  O   UNL     1      43.340  61.160  27.106  1.00  0.00    -0.550 OA
ATOM      8  O   UNL     1      44.708  62.363  25.717  1.00  0.00    -0.550 OA
ENDBRANCH   5   6
ENDBRANCH   4   5
ENDBRANCH   3   4
ENDBRANCH   2   3
ENDBRANCH   1   2
BRANCH   1   9
ATOM      9  C   UNL     1      39.739  67.104  25.641  1.00  0.00     0.000 C 
BRANCH   9  10
ATOM     10  C   UNL     1      38.861  66.905  24.391  1.00  0.00    -0.000 C 
BRANCH  10  11
ATOM     11  C   UNL     1      37.513  67.636  24.491  1.00  0.00    -0.000 C 
BRANCH  11  12
ATOM     12  C   UNL     1      36.872  67.502  25.883  1.00  0.00    -0.000 C 
BRANCH  12  13
ATOM     13  C   UNL     1      35.336  67.494  25.826  1.00  0.00    -0.003 C 
ATOM     14  C   UNL     1      34.739  66.115  26.108  1.00  0.00     0.004 C 
ENDBRANCH  12  13
ENDBRANCH  11  12
ENDBRANCH  10  11
ENDBRANCH   9  10
ENDBRANCH   1   9
TORSDOF 10
ENDMDL
MODEL 2
REMARK VINA RESULT:    -4.982      3.642      7.034
REMARK INTER + INTRA:          -8.424
REMARK INTER:                  -8.031
REMARK INTRA:                  -0.394
REMARK UNBOUND:                -0.530
REMARK SMILES CCCCCCCCCCCC(=O)[O-]
REMARK SMILES IDX 7 1 8 2 9 3 10 4 11 5 12 6 13 7 14 8 6 9 5 10 4 11 3 12 2 13
REMARK SMILES IDX 1 14
REMARK H PARENT
REMARK Flexibility Score: inf
ROOT
ATOM      1  C   UNL     1      39.193  66.965  24.577  1.00  0.00     0.000 C 
ENDROOT
BRANCH   1   2
ATOM      2  C   UNL     1      37.733  67.429  24.435  1.00  0.00     0.000 C 
BRANCH   2   3
ATOM      3  C   UNL     1      36.999  67.491  25.784  1.00  0.00     0.000 C 
BRANCH   3   4
ATOM      4  C   UNL     1      35.473  67.348  25.637  1.00  0.00     0.006 C 
BRANCH   4   5
ATOM      5  C   UNL     1      34.855  66.540  26.786  1.00  0.00     0.053 C 
BRANCH   5   6
ATOM      6  C   UNL     1      34.725  65.089  26.439  1.00  0.00     0.041 C 
ATOM      7  O   UNL     1      34.320  64.745  25.297  1.00  0.00    -0.550 OA
ATOM      8  O   UNL     1      35.015  64.117  27.387  1.00  0.00    -0.550 OA
ENDBRANCH   5   6
ENDBRANCH   4   5
ENDBRANCH   3   4
ENDBRANCH   2   3
ENDBRANCH   1   2
BRANCH   1   9
ATOM      9  C   UNL     1      39.861  66.695  23.220  1.00  0.00     0.000 C 
BRANCH   9  10
ATOM     10  C   UNL     1      41.203  65.951  23.355  1.00  0.00    -0.000 C 
BRANCH  10  11
ATOM     11  C   UNL     1      41.393  65.321  24.744  1.00  0.00    -0.000 C 
BRANCH  11  12
ATOM     12  C   UNL     1      41.815  63.843  24.668  1.00  0.00    -0.000 C 
BRANCH  12  13
ATOM     13  C   UNL     1      42.470  63.350  25.967  1.00  0.00    -0.003 C 
ATOM     14  C   UNL     1      42.890  61.881  25.900  1.00  0.00     0.004 C 
ENDBRANCH  12  13
ENDBRANCH  11  12
ENDBRANCH  10  11
ENDBRANCH   9  10
ENDBRANCH   1   9
TORSDOF 10
ENDMDL
MODEL 3
REMARK VINA RESULT:    -4.942      3.498      4.700
REMARK INTER + INTRA:          -8.361
REMARK INTER:                  -7.966
REMARK INTRA:                  -0.395
REMARK UNBOUND:                -0.530
REMARK SMILES CCCCCCCCCCCC(=O)[O-]
REMARK SMILES IDX 7 1 8 2 9 3 10 4 11 5 12 6 13 7 14 8 6 9 5 10 4 11 3 12 2 13
REMARK SMILES IDX 1 14
REMARK H PARENT
REMARK Flexibility Score: inf
ROOT
ATOM      1  C   UNL     1      38.406  67.100  24.519  1.00  0.00     0.000 C 
ENDROOT
BRANCH   1   2
ATOM      2  C   UNL     1      39.894  67.225  24.892  1.00  0.00     0.000 C 
BRANCH   2   3
ATOM      3  C   UNL     1      40.657  65.901  24.731  1.00  0.00     0.000 C 
BRANCH   3   4
ATOM      4  C   UNL     1      41.418  65.812  23.396  1.00  0.00     0.006 C 
BRANCH   4   5
ATOM      5  C   UNL     1      41.129  67.012  22.486  1.00  0.00     0.053 C 
BRANCH   5   6
ATOM      6  C   UNL     1      40.387  66.606  21.248  1.00  0.00     0.041 C 
ATOM      7  O   UNL     1      40.088  67.466  20.379  1.00  0.00    -0.550 OA
ATOM      8  O   UNL     1      39.996  65.285  21.073  1.00  0.00    -0.550 OA
ENDBRANCH   5   6
ENDBRANCH   4   5
ENDBRANCH   3   4
ENDBRANCH   2   3
ENDBRANCH   1   2
BRANCH   1   9
ATOM      9  C   UNL     1      37.481  67.195  25.742  1.00  0.00     0.000 C 
BRANCH   9  10
ATOM     10  C   UNL     1      36.089  67.754  25.392  1.00  0.00    -0.000 C 
BRANCH  10  11
ATOM     11  C   UNL     1      34.968  67.116  26.227  1.00  0.00    -0.000 C 
BRANCH  11  12
ATOM     12  C   UNL     1      34.927  65.584  26.088  1.00  0.00    -0.000 C 
BRANCH  12  13
ATOM     13  C   UNL     1      34.965  64.869  27.448  1.00  0.00    -0.003 C 
ATOM     14  C   UNL     1      34.836  63.350  27.323  1.00  0.00     0.004 C 
ENDBRANCH  12  13
ENDBRANCH  11  12
ENDBRANCH  10  11
ENDBRANCH   9  10
ENDBRANCH   1   9
TORSDOF 10
ENDMDL
MODEL 4
REMARK VINA RESULT:    -4.932      3.198      4.570
REMARK INTER + INTRA:          -8.345
REMARK INTER:                  -7.744
REMARK INTRA:                  -0.601
REMARK UNBOUND:                -0.530
REMARK SMILES CCCCCCCCCCCC(=O)[O-]
REMARK SMILES IDX 7 1 8 2 9 3 10 4 11 5 12 6 13 7 14 8 6 9 5 10 4 11 3 12 2 13
REMARK SMILES IDX 1 14
REMARK H PARENT
REMARK Flexibility Score: inf
ROOT
ATOM      1  C   UNL     1      41.370  65.190  24.208  1.00  0.00     0.000 C 
ENDROOT
BRANCH   1   2
ATOM      2  C   UNL     1      41.692  63.692  24.350  1.00  0.00     0.000 C 
BRANCH   2   3
ATOM      3  C   UNL     1      42.360  63.356  25.693  1.00  0.00     0.000 C 
BRANCH   3   4
ATOM      4  C   UNL     1      42.946  61.933  25.725  1.00  0.00     0.006 C 
BRANCH   4   5
ATOM      5  C   UNL     1      44.164  61.830  26.653  1.00  0.00     0.053 C 
BRANCH   5   6
ATOM      6  C   UNL     1      45.426  62.245  25.961  1.00  0.00     0.041 C 
ATOM      7  O   UNL     1      45.670  61.840  24.794  1.00  0.00    -0.550 OA
ATOM      8  O   UNL     1      46.349  63.047  26.618  1.00  0.00    -0.550 OA
ENDBRANCH   5   6
ENDBRANCH   4   5
ENDBRANCH   3   4
ENDBRANCH   2   3
ENDBRANCH   1   2
BRANCH   1   9
ATOM      9  C   UNL     1      41.350  65.920  25.560  1.00  0.00     0.000 C 
BRANCH   9  10
ATOM     10  C   UNL     1      41.349  67.453  25.408  1.00  0.00    -0.000 C 
BRANCH  10  11
ATOM     11  C   UNL     1      41.565  67.904  23.955  1.00  0.00    -0.000 C 
BRANCH  11  12
ATOM     12  C   UNL     1      42.872  68.695  23.771  1.00  0.00    -0.000 C 
BRANCH  12  13
ATOM     13  C   UNL     1      43.194  69.588  24.980  1.00  0.00    -0.003 C 
ATOM     14  C   UNL     1      44.179  70.709  24.644  1.00  0.00     0.004 C 
ENDBRANCH  12  13
ENDBRANCH  11  12
ENDBRANCH  10  11
ENDBRANCH   9  10
ENDBRANCH   1   9
TORSDOF 10
ENDMDL
MODEL 5
REMARK VINA RESULT:    -4.878      4.446      7.256
REMARK INTER + INTRA:          -8.259
REMARK INTER:                  -7.863
REMARK INTRA:                  -0.396
REMARK UNBOUND:                -0.530
REMARK SMILES CCCCCCCCCCCC(=O)[O-]
REMARK SMILES IDX 7 1 8 2 9 3 10 4 11 5 12 6 13 7 14 8 6 9 5 10 4 11 3 12 2 13
REMARK SMILES IDX 1 14
REMARK H PARENT
REMARK Flexibility Score: inf
ROOT
ATOM      1  C   UNL     1      39.400  66.745  24.569  1.00  0.00     0.000 C 
ENDROOT
BRANCH   1   2
ATOM      2  C   UNL     1      37.958  67.260  24.415  1.00  0.00     0.000 C 
BRANCH   2   3
ATOM      3  C   UNL     1      37.258  67.470  25.767  1.00  0.00     0.000 C 
BRANCH   3   4
ATOM      4  C   UNL     1      35.744  67.712  25.621  1.00  0.00     0.006 C 
BRANCH   4   5
ATOM      5  C   UNL     1      34.934  66.969  26.692  1.00  0.00     0.053 C 
BRANCH   5   6
ATOM      6  C   UNL     1      34.653  65.552  26.293  1.00  0.00     0.041 C 
ATOM      7  O   UNL     1      35.042  64.601  27.020  1.00  0.00    -0.550 OA
ATOM      8  O   UNL     1      33.994  65.282  25.101  1.00  0.00    -0.550 OA
ENDBRANCH   5   6
ENDBRANCH   4   5
ENDBRANCH   3   4
ENDBRANCH   2   3
ENDBRANCH   1   2
BRANCH   1   9
ATOM      9  C   UNL     1      40.057  66.418  23.219  1.00  0.00     0.000 C 
BRANCH   9  10
ATOM     10  C   UNL     1      41.459  67.039  23.076  1.00  0.00    -0.000 C 
BRANCH  10  11
ATOM     11  C   UNL     1      41.827  67.951  24.257  1.00  0.00    -0.000 C 
BRANCH  11  12
ATOM     12  C   UNL     1      42.909  68.982  23.891  1.00  0.00    -0.000 C 
BRANCH  12  13
ATOM     13  C   UNL     1      43.267  69.902  25.068  1.00  0.00    -0.003 C 
ATOM     14  C   UNL     1      44.322  70.948  24.705  1.00  0.00     0.004 C 
ENDBRANCH  12  13
ENDBRANCH  11  12
ENDBRANCH  10  11
ENDBRANCH   9  10
ENDBRANCH   1   9
TORSDOF 10
ENDMDL
MODEL 6
REMARK VINA RESULT:    -4.870      5.385      6.733
REMARK INTER + INTRA:          -8.247
REMARK INTER:                  -7.867
REMARK INTRA:                  -0.380
REMARK UNBOUND:                -0.530
REMARK SMILES CCCCCCCCCCCC(=O)[O-]
REMARK SMILES IDX 7 1 8 2 9 3 10 4 11 5 12 6 13 7 14 8 6 9 5 10 4 11 3 12 2 13
REMARK SMILES IDX 1 14
REMARK H PARENT
REMARK Flexibility Score: inf
ROOT
ATOM      1  C   UNL     1      41.739  67.743  24.453  1.00  0.00     0.000 C 
ENDROOT
BRANCH   1   2
ATOM      2  C   UNL     1      42.722  68.792  23.905  1.00  0.00     0.000 C 
BRANCH   2   3
ATOM      3  C   UNL     1      43.294  69.697  25.007  1.00  0.00     0.000 C 
BRANCH   3   4
ATOM      4  C   UNL     1      44.144  70.852  24.446  1.00  0.00     0.006 C 
BRANCH   4   5
ATOM      5  C   UNL     1      43.967  72.145  25.254  1.00  0.00     0.053 C 
BRANCH   5   6
ATOM      6  C   UNL     1      42.901  73.023  24.673  1.00  0.00     0.041 C 
ATOM      7  O   UNL     1      42.978  73.403  23.474  1.00  0.00    -0.550 OA
ATOM      8  O   UNL     1      41.843  73.450  25.463  1.00  0.00    -0.550 OA
ENDBRANCH   5   6
ENDBRANCH   4   5
ENDBRANCH   3   4
ENDBRANCH   2   3
ENDBRANCH   1   2
BRANCH   1   9
ATOM      9  C   UNL     1      41.147  66.855  23.347  1.00  0.00     0.000 C 
BRANCH   9  10
ATOM     10  C   UNL     1      39.696  66.428  23.640  1.00  0.00    -0.000 C 
BRANCH  10  11
ATOM     11  C   UNL     1      39.095  67.163  24.848  1.00  0.00    -0.000 C 
BRANCH  11  12
ATOM     12  C   UNL     1      37.617  67.535  24.637  1.00  0.00    -0.000 C 
BRANCH  12  13
ATOM     13  C   UNL     1      36.724  67.086  25.805  1.00  0.00    -0.003 C 
ATOM     14  C   UNL     1      35.342  67.739  25.781  1.00  0.00     0.004 C 
ENDBRANCH  12  13
ENDBRANCH  11  12
ENDBRANCH  10  11
ENDBRANCH   9  10
ENDBRANCH   1   9
TORSDOF 10
ENDMDL
MODEL 7
REMARK VINA RESULT:    -4.829      4.537      5.517
REMARK INTER + INTRA:          -8.182
REMARK INTER:                  -7.794
REMARK INTRA:                  -0.388
REMARK UNBOUND:                -0.530
REMARK SMILES CCCCCCCCCCCC(=O)[O-]
REMARK SMILES IDX 7 1 8 2 9 3 10 4 11 5 12 6 13 7 14 8 6 9 5 10 4 11 3 12 2 13
REMARK SMILES IDX 1 14
REMARK H PARENT
REMARK Flexibility Score: inf
ROOT
ATOM      1  C   UNL     1      40.310  66.419  23.255  1.00  0.00     0.000 C 
ENDROOT
BRANCH   1   2
ATOM      2  C   UNL     1      41.446  67.416  22.967  1.00  0.00     0.000 C 
BRANCH   2   3
ATOM      3  C   UNL     1      42.057  68.003  24.249  1.00  0.00     0.000 C 
BRANCH   3   4
ATOM      4  C   UNL     1      43.010  69.179  23.969  1.00  0.00     0.006 C 
BRANCH   4   5
ATOM      5  C   UNL     1      43.269  70.025  25.222  1.00  0.00     0.053 C 
BRANCH   5   6
ATOM      6  C   UNL     1      43.938  71.323  24.889  1.00  0.00     0.041 C 
ATOM      7  O   UNL     1      45.191  71.427  24.964  1.00  0.00    -0.550 OA
ATOM      8  O   UNL     1      43.176  72.427  24.531  1.00  0.00    -0.550 OA
ENDBRANCH   5   6
ENDBRANCH   4   5
ENDBRANCH   3   4
ENDBRANCH   2   3
ENDBRANCH   1   2
BRANCH   1   9
ATOM      9  C   UNL     1      39.581  66.722  24.573  1.00  0.00     0.000 C 
BRANCH   9  10
ATOM     10  C   UNL     1      38.103  67.103  24.361  1.00  0.00    -0.000 C 
BRANCH  10  11
ATOM     11  C   UNL     1      37.373  67.404  25.679  1.00  0.00    -0.000 C 
BRANCH  11  12
ATOM     12  C   UNL     1      35.908  67.820  25.459  1.00  0.00    -0.000 C 
BRANCH  12  13
ATOM     13  C   UNL     1      34.948  67.137  26.447  1.00  0.00    -0.003 C 
ATOM     14  C   UNL     1      34.802  65.637  26.191  1.00  0.00     0.004 C 
ENDBRANCH  12  13
ENDBRANCH  11  12
ENDBRANCH  10  11
ENDBRANCH   9  10
ENDBRANCH   1   9
TORSDOF 10
ENDMDL
MODEL 8
REMARK VINA RESULT:    -4.825      5.367      6.803
REMARK INTER + INTRA:          -8.175
REMARK INTER:                  -7.646
REMARK INTRA:                  -0.529
REMARK UNBOUND:                -0.530
REMARK SMILES CCCCCCCCCCCC(=O)[O-]
REMARK SMILES IDX 7 1 8 2 9 3 10 4 11 5 12 6 13 7 14 8 6 9 5 10 4 11 3 12 2 13
REMARK SMILES IDX 1 14
REMARK H PARENT
REMARK Flexibility Score: inf
ROOT
ATOM      1  C   UNL     1      43.210  69.288  23.920  1.00  0.00     0.000 C 
ENDROOT
BRANCH   1   2
ATOM      2  C   UNL     1      42.138  68.267  24.342  1.00  0.00     0.000 C 
BRANCH   2   3
ATOM      3  C   UNL     1      41.549  67.501  23.146  1.00  0.00     0.000 C 
BRANCH   3   4
ATOM      4  C   UNL     1      40.615  66.356  23.577  1.00  0.00     0.006 C 
BRANCH   4   5
ATOM      5  C   UNL     1      39.135  66.737  23.446  1.00  0.00     0.053 C 
BRANCH   5   6
ATOM      6  C   UNL     1      38.542  67.128  24.765  1.00  0.00     0.041 C 
ATOM      7  O   UNL     1      39.246  67.096  25.809  1.00  0.00    -0.550 OA
ATOM      8  O   UNL     1      37.205  67.492  24.847  1.00  0.00    -0.550 OA
ENDBRANCH   5   6
ENDBRANCH   4   5
ENDBRANCH   3   4
ENDBRANCH   2   3
ENDBRANCH   1   2
BRANCH   1   9
ATOM      9  C   UNL     1      43.683  70.163  25.090  1.00  0.00     0.000 C 
BRANCH   9  10
ATOM     10  C   UNL     1      44.280  71.505  24.625  1.00  0.00    -0.000 C 
BRANCH  10  11
ATOM     11  C   UNL     1      43.474  72.716  25.122  1.00  0.00    -0.000 C 
BRANCH  11  12
ATOM     12  C   UNL     1      42.442  73.201  24.088  1.00  0.00    -0.000 C 
BRANCH  12  13
ATOM     13  C   UNL     1      41.238  73.898  24.741  1.00  0.00    -0.003 C 
ATOM     14  C   UNL     1      41.283  73.854  26.269  1.00  0.00     0.004 C 
ENDBRANCH  12  13
ENDBRANCH  11  12
ENDBRANCH  10  11
ENDBRANCH   9  10
ENDBRANCH   1   9
TORSDOF 10
ENDMDL
MODEL 9
REMARK VINA RESULT:    -4.816      3.888      7.703
REMARK INTER + INTRA:          -8.161
REMARK INTER:                  -7.617
REMARK INTRA:                  -0.544
REMARK UNBOUND:                -0.530
REMARK SMILES CCCCCCCCCCCC(=O)[O-]
REMARK SMILES IDX 7 1 8 2 9 3 10 4 11 5 12 6 13 7 14 8 6 9 5 10 4 11 3 12 2 13
REMARK SMILES IDX 1 14
REMARK H PARENT
REMARK Flexibility Score: inf
ROOT
ATOM      1  C   UNL     1      42.121  63.805  25.678  1.00  0.00     0.000 C 
ENDROOT
BRANCH   1   2
ATOM      2  C   UNL     1      41.659  64.717  24.528  1.00  0.00     0.000 C 
BRANCH   2   3
ATOM      3  C   UNL     1      41.035  66.029  25.030  1.00  0.00     0.000 C 
BRANCH   3   4
ATOM      4  C   UNL     1      40.892  67.082  23.916  1.00  0.00     0.006 C 
BRANCH   4   5
ATOM      5  C   UNL     1      39.914  66.636  22.821  1.00  0.00     0.053 C 
BRANCH   5   6
ATOM      6  C   UNL     1      40.541  66.683  21.462  1.00  0.00     0.041 C 
ATOM      7  O   UNL     1      41.642  66.109  21.252  1.00  0.00    -0.550 OA
ATOM      8  O   UNL     1      39.929  67.392  20.436  1.00  0.00    -0.550 OA
ENDBRANCH   5   6
ENDBRANCH   4   5
ENDBRANCH   3   4
ENDBRANCH   2   3
ENDBRANCH   1   2
BRANCH   1   9
ATOM      9  C   UNL     1      42.406  62.368  25.213  1.00  0.00     0.000 C 
BRANCH   9  10
ATOM     10  C   UNL     1      43.170  61.544  26.266  1.00  0.00    -0.000 C 
BRANCH  10  11
ATOM     11  C   UNL     1      44.580  62.091  26.539  1.00  0.00    -0.000 C 
BRANCH  11  12
ATOM     12  C   UNL     1      45.522  61.920  25.334  1.00  0.00    -0.000 C 
BRANCH  12  13
ATOM     13  C   UNL     1      46.684  62.926  25.348  1.00  0.00    -0.003 C 
ATOM     14  C   UNL     1      47.100  63.333  26.762  1.00  0.00     0.004 C 
ENDBRANCH  12  13
ENDBRANCH  11  12
ENDBRANCH  10  11
ENDBRANCH   9  10
ENDBRANCH   1   9
TORSDOF 10
ENDMDL
