MODEL 1
REMARK VINA RESULT:    -0.118      0.000      0.000
REMARK INTER + INTRA:          -2.104
REMARK INTER:                  -0.173
REMARK INTRA:                  -1.931
REMARK UNBOUND:                -1.931
REMARK SMILES O=c1c(O[C@H]2O[C@@H](CO)[C@H](O)[C@@H](O)[C@@H]2O)c(-c2ccc(O)c(O)c2)oc2cc(O)cc(O)c12
REMARK SMILES IDX 4 1 3 2 16 3 25 4 2 5 26 6 1 7 33 8 27 9 31 10 28 11 30 12
REMARK SMILES IDX 17 13 18 14 19 15 20 16 24 17 22 18 21 19 23 21 32 23 29 25
REMARK SMILES IDX 5 27 14 28 6 29 12 30 7 31 10 32 15 33 13 35 8 37 9 38 11 40
REMARK H PARENT 21 20 23 22 32 24 29 26 15 34 13 36 9 39 11 41
REMARK Flexibility Score: inf
ROOT
ATOM      1  O   UNL     1      25.674  25.776  49.574  1.00  0.00    -0.454 OA
ENDROOT
BRANCH   1   2
ATOM      2  C   UNL     1      25.801  24.802  50.585  1.00  0.00     0.214 A 
ATOM      3  C   UNL     1      24.781  23.940  51.072  1.00  0.00     0.180 A 
ATOM      4  O   UNL     1      25.032  23.157  52.119  1.00  0.00    -0.452 OA
ATOM      5  C   UNL     1      27.076  24.714  51.177  1.00  0.00     0.239 A 
ATOM      6  C   UNL     1      26.203  23.092  52.731  1.00  0.00     0.146 A 
ATOM      7  O   UNL     1      28.008  25.432  50.725  1.00  0.00    -0.285 OA
ATOM      8  C   UNL     1      27.300  23.845  52.261  1.00  0.00     0.111 A 
ATOM      9  C   UNL     1      26.345  22.254  53.841  1.00  0.00     0.094 A 
ATOM     10  C   UNL     1      28.555  23.709  52.903  1.00  0.00     0.134 A 
ATOM     11  C   UNL     1      27.575  22.140  54.489  1.00  0.00     0.123 A 
ATOM     12  C   UNL     1      28.676  22.854  54.011  1.00  0.00     0.093 A 
BRANCH   3  13
ATOM     13  C   UNL     1      23.435  23.821  50.489  1.00  0.00     0.025 A 
ATOM     14  C   UNL     1      22.326  24.411  51.118  1.00  0.00     0.016 A 
ATOM     15  C   UNL     1      21.069  24.376  50.508  1.00  0.00     0.051 A 
ATOM     16  C   UNL     1      20.912  23.793  49.243  1.00  0.00     0.157 A 
ATOM     17  C   UNL     1      23.283  23.271  49.204  1.00  0.00     0.062 A 
ATOM     18  C   UNL     1      22.027  23.244  48.585  1.00  0.00     0.158 A 
BRANCH  16  19
ATOM     19  O   UNL     1      19.648  23.775  48.655  1.00  0.00    -0.504 OA
ATOM     20  H   UNL     1      19.317  24.536  48.070  1.00  0.00     0.293 HD
ENDBRANCH  16  19
BRANCH  18  21
ATOM     21  O   UNL     1      21.881  22.674  47.321  1.00  0.00    -0.504 OA
ATOM     22  H   UNL     1      22.005  23.221  46.474  1.00  0.00     0.293 HD
ENDBRANCH  18  21
ENDBRANCH   3  13
BRANCH  10  23
ATOM     23  O   UNL     1      29.679  24.406  52.448  1.00  0.00    -0.507 OA
ATOM     24  H   UNL     1      30.346  23.974  51.823  1.00  0.00     0.293 HD
ENDBRANCH  10  23
BRANCH  11  25
ATOM     25  O   UNL     1      27.717  21.323  55.609  1.00  0.00    -0.508 OA
ATOM     26  H   UNL     1      27.750  21.711  56.542  1.00  0.00     0.293 HD
ENDBRANCH  11  25
ENDBRANCH   1   2
BRANCH   1  27
ATOM     27  C   UNL     1      25.120  27.090  49.598  1.00  0.00     0.339 C 
ATOM     28  C   UNL     1      23.743  27.073  48.903  1.00  0.00     0.214 C 
ATOM     29  O   UNL     1      26.008  28.089  49.107  1.00  0.00    -0.332 OA
ATOM     30  C   UNL     1      23.876  27.024  47.362  1.00  0.00     0.180 C 
ATOM     31  C   UNL     1      26.173  28.136  47.691  1.00  0.00     0.179 C 
ATOM     32  C   UNL     1      24.837  28.114  46.875  1.00  0.00     0.177 C 
BRANCH  28  33
ATOM     33  O   UNL     1      23.009  28.205  49.298  1.00  0.00    -0.384 OA
ATOM     34  H   UNL     1      23.356  28.476  50.188  1.00  0.00     0.211 HD
ENDBRANCH  28  33
BRANCH  30  35
ATOM     35  O   UNL     1      24.329  25.772  46.901  1.00  0.00    -0.387 OA
ATOM     36  H   UNL     1      25.202  25.894  46.418  1.00  0.00     0.211 HD
ENDBRANCH  30  35
BRANCH  31  37
ATOM     37  C   UNL     1      27.228  27.126  47.188  1.00  0.00     0.191 C 
BRANCH  37  38
ATOM     38  O   UNL     1      28.169  26.853  48.190  1.00  0.00    -0.394 OA
ATOM     39  H   UNL     1      28.680  27.689  48.345  1.00  0.00     0.210 HD
ENDBRANCH  37  38
ENDBRANCH  31  37
BRANCH  32  40
ATOM     40  O   UNL     1      24.201  29.374  46.875  1.00  0.00    -0.387 OA
ATOM     41  H   UNL     1      23.506  29.384  46.171  1.00  0.00     0.211 HD
ENDBRANCH  32  40
ENDBRANCH   1  27
TORSDOF 12
ENDMDL
MODEL 2
REMARK VINA RESULT:    -0.110      2.898      4.889
REMARK INTER + INTRA:          -2.092
REMARK INTER:                  -0.164
REMARK INTRA:                  -1.928
REMARK UNBOUND:                -1.931
REMARK SMILES O=c1c(O[C@H]2O[C@@H](CO)[C@H](O)[C@@H](O)[C@@H]2O)c(-c2ccc(O)c(O)c2)oc2cc(O)cc(O)c12
REMARK SMILES IDX 4 1 3 2 16 3 25 4 2 5 26 6 1 7 33 8 27 9 31 10 28 11 30 12
REMARK SMILES IDX 17 13 18 14 19 15 20 16 24 17 22 18 21 19 23 21 32 23 29 25
REMARK SMILES IDX 5 27 14 28 6 29 12 30 7 31 10 32 15 33 13 35 8 37 9 38 11 40
REMARK H PARENT 21 20 23 22 32 24 29 26 15 34 13 36 9 39 11 41
REMARK Flexibility Score: inf
ROOT
ATOM      1  O   UNL     1      25.876  26.126  48.997  1.00  0.00    -0.454 OA
ENDROOT
BRANCH   1   2
ATOM      2  C   UNL     1      26.906  25.460  49.690  1.00  0.00     0.214 A 
ATOM      3  C   UNL     1      27.535  25.880  50.895  1.00  0.00     0.180 A 
ATOM      4  O   UNL     1      28.580  25.199  51.358  1.00  0.00    -0.452 OA
ATOM      5  C   UNL     1      27.361  24.269  49.090  1.00  0.00     0.239 A 
ATOM      6  C   UNL     1      29.065  24.108  50.788  1.00  0.00     0.146 A 
ATOM      7  O   UNL     1      26.783  23.850  48.052  1.00  0.00    -0.285 OA
ATOM      8  C   UNL     1      28.450  23.566  49.639  1.00  0.00     0.111 A 
ATOM      9  C   UNL     1      30.187  23.489  51.347  1.00  0.00     0.094 A 
ATOM     10  C   UNL     1      28.959  22.366  49.086  1.00  0.00     0.134 A 
ATOM     11  C   UNL     1      30.703  22.321  50.787  1.00  0.00     0.123 A 
ATOM     12  C   UNL     1      30.081  21.756  49.671  1.00  0.00     0.093 A 
BRANCH   3  13
ATOM     13  C   UNL     1      27.105  27.029  51.708  1.00  0.00     0.025 A 
ATOM     14  C   UNL     1      27.829  28.233  51.689  1.00  0.00     0.016 A 
ATOM     15  C   UNL     1      27.360  29.347  52.388  1.00  0.00     0.051 A 
ATOM     16  C   UNL     1      26.140  29.291  53.075  1.00  0.00     0.157 A 
ATOM     17  C   UNL     1      25.863  26.986  52.365  1.00  0.00     0.062 A 
ATOM     18  C   UNL     1      25.384  28.105  53.057  1.00  0.00     0.158 A 
BRANCH  16  19
ATOM     19  O   UNL     1      25.692  30.419  53.761  1.00  0.00    -0.504 OA
ATOM     20  H   UNL     1      24.759  30.473  54.156  1.00  0.00     0.293 HD
ENDBRANCH  16  19
BRANCH  18  21
ATOM     21  O   UNL     1      24.164  28.044  53.728  1.00  0.00    -0.504 OA
ATOM     22  H   UNL     1      23.395  27.477  53.382  1.00  0.00     0.293 HD
ENDBRANCH  18  21
ENDBRANCH   3  13
BRANCH  10  23
ATOM     23  O   UNL     1      28.358  21.771  47.972  1.00  0.00    -0.507 OA
ATOM     24  H   UNL     1      28.827  21.740  47.077  1.00  0.00     0.293 HD
ENDBRANCH  10  23
BRANCH  11  25
ATOM     25  O   UNL     1      31.834  21.712  51.327  1.00  0.00    -0.508 OA
ATOM     26  H   UNL     1      31.790  21.194  52.194  1.00  0.00     0.293 HD
ENDBRANCH  11  25
ENDBRANCH   1   2
BRANCH   1  27
ATOM     27  C   UNL     1      25.901  27.270  48.145  1.00  0.00     0.339 C 
ATOM     28  C   UNL     1      25.346  28.487  48.913  1.00  0.00     0.214 C 
ATOM     29  O   UNL     1      25.287  27.049  46.880  1.00  0.00    -0.332 OA
ATOM     30  C   UNL     1      23.803  28.447  49.018  1.00  0.00     0.180 C 
ATOM     31  C   UNL     1      23.860  27.022  46.875  1.00  0.00     0.179 C 
ATOM     32  C   UNL     1      23.181  28.209  47.638  1.00  0.00     0.177 C 
BRANCH  28  33
ATOM     33  O   UNL     1      25.765  29.668  48.278  1.00  0.00    -0.384 OA
ATOM     34  H   UNL     1      25.403  30.425  48.809  1.00  0.00     0.211 HD
ENDBRANCH  28  33
BRANCH  30  35
ATOM     35  O   UNL     1      23.349  27.449  49.904  1.00  0.00    -0.387 OA
ATOM     36  H   UNL     1      22.459  27.724  50.283  1.00  0.00     0.211 HD
ENDBRANCH  30  35
BRANCH  31  37
ATOM     37  C   UNL     1      23.298  25.634  47.254  1.00  0.00     0.191 C 
BRANCH  37  38
ATOM     38  O   UNL     1      24.212  24.623  46.928  1.00  0.00    -0.394 OA
ATOM     39  H   UNL     1      23.721  23.947  46.393  1.00  0.00     0.210 HD
ENDBRANCH  37  38
ENDBRANCH  31  37
BRANCH  32  40
ATOM     40  O   UNL     1      23.193  29.397  46.875  1.00  0.00    -0.387 OA
ATOM     41  H   UNL     1      22.634  29.268  46.070  1.00  0.00     0.211 HD
ENDBRANCH  32  40
ENDBRANCH   1  27
TORSDOF 12
ENDMDL
MODEL 3
REMARK VINA RESULT:    -0.104      3.600      5.792
REMARK INTER + INTRA:          -2.084
REMARK INTER:                  -0.155
REMARK INTRA:                  -1.930
REMARK UNBOUND:                -1.931
REMARK SMILES O=c1c(O[C@H]2O[C@@H](CO)[C@H](O)[C@@H](O)[C@@H]2O)c(-c2ccc(O)c(O)c2)oc2cc(O)cc(O)c12
REMARK SMILES IDX 4 1 3 2 16 3 25 4 2 5 26 6 1 7 33 8 27 9 31 10 28 11 30 12
REMARK SMILES IDX 17 13 18 14 19 15 20 16 24 17 22 18 21 19 23 21 32 23 29 25
REMARK SMILES IDX 5 27 14 28 6 29 12 30 7 31 10 32 15 33 13 35 8 37 9 38 11 40
REMARK H PARENT 21 20 23 22 32 24 29 26 15 34 13 36 9 39 11 41
REMARK Flexibility Score: inf
ROOT
ATOM      1  O   UNL     1      23.434  26.715  49.407  1.00  0.00    -0.454 OA
ENDROOT
BRANCH   1   2
ATOM      2  C   UNL     1      22.421  26.524  50.368  1.00  0.00     0.214 A 
ATOM      3  C   UNL     1      21.586  27.525  50.938  1.00  0.00     0.180 A 
ATOM      4  O   UNL     1      20.758  27.199  51.927  1.00  0.00    -0.452 OA
ATOM      5  C   UNL     1      22.258  25.198  50.814  1.00  0.00     0.239 A 
ATOM      6  C   UNL     1      20.622  25.974  52.405  1.00  0.00     0.146 A 
ATOM      7  O   UNL     1      22.951  24.288  50.285  1.00  0.00    -0.285 OA
ATOM      8  C   UNL     1      21.344  24.900  51.841  1.00  0.00     0.111 A 
ATOM      9  C   UNL     1      19.740  25.751  53.468  1.00  0.00     0.094 A 
ATOM     10  C   UNL     1      21.133  23.591  52.339  1.00  0.00     0.134 A 
ATOM     11  C   UNL     1      19.552  24.465  53.974  1.00  0.00     0.123 A 
ATOM     12  C   UNL     1      20.235  23.390  53.400  1.00  0.00     0.093 A 
BRANCH   3  13
ATOM     13  C   UNL     1      21.545  28.930  50.502  1.00  0.00     0.025 A 
ATOM     14  C   UNL     1      22.148  29.938  51.272  1.00  0.00     0.016 A 
ATOM     15  C   UNL     1      22.188  31.254  50.803  1.00  0.00     0.051 A 
ATOM     16  C   UNL     1      21.669  31.572  49.541  1.00  0.00     0.157 A 
ATOM     17  C   UNL     1      21.060  29.243  49.220  1.00  0.00     0.062 A 
ATOM     18  C   UNL     1      21.109  30.559  48.742  1.00  0.00     0.158 A 
BRANCH  16  19
ATOM     19  O   UNL     1      21.726  32.891  49.094  1.00  0.00    -0.504 OA
ATOM     20  H   UNL     1      21.767  33.675  49.738  1.00  0.00     0.293 HD
ENDBRANCH  16  19
BRANCH  18  21
ATOM     21  O   UNL     1      20.602  30.865  47.480  1.00  0.00    -0.504 OA
ATOM     22  H   UNL     1      20.100  30.175  46.929  1.00  0.00     0.293 HD
ENDBRANCH  18  21
ENDBRANCH   3  13
BRANCH  10  23
ATOM     23  O   UNL     1      21.796  22.491  51.784  1.00  0.00    -0.507 OA
ATOM     24  H   UNL     1      21.284  21.714  51.390  1.00  0.00     0.293 HD
ENDBRANCH  10  23
BRANCH  11  25
ATOM     25  O   UNL     1      18.692  24.241  55.047  1.00  0.00    -0.508 OA
ATOM     26  H   UNL     1      18.275  25.009  55.556  1.00  0.00     0.293 HD
ENDBRANCH  11  25
ENDBRANCH   1   2
BRANCH   1  27
ATOM     27  C   UNL     1      24.759  27.232  49.525  1.00  0.00     0.339 C 
ATOM     28  C   UNL     1      24.795  28.668  48.964  1.00  0.00     0.214 C 
ATOM     29  O   UNL     1      25.754  26.369  48.983  1.00  0.00    -0.332 OA
ATOM     30  C   UNL     1      24.795  28.683  47.417  1.00  0.00     0.180 C 
ATOM     31  C   UNL     1      25.845  26.337  47.560  1.00  0.00     0.179 C 
ATOM     32  C   UNL     1      25.879  27.745  46.875  1.00  0.00     0.177 C 
BRANCH  28  33
ATOM     33  O   UNL     1      25.928  29.332  49.463  1.00  0.00    -0.384 OA
ATOM     34  H   UNL     1      26.380  28.703  50.085  1.00  0.00     0.211 HD
ENDBRANCH  28  33
BRANCH  30  35
ATOM     35  O   UNL     1      23.550  28.307  46.875  1.00  0.00    -0.387 OA
ATOM     36  H   UNL     1      23.692  27.584  46.191  1.00  0.00     0.211 HD
ENDBRANCH  30  35
BRANCH  31  37
ATOM     37  C   UNL     1      24.829  25.361  46.928  1.00  0.00     0.191 C 
BRANCH  37  38
ATOM     38  O   UNL     1      24.504  24.335  47.825  1.00  0.00    -0.394 OA
ATOM     39  H   UNL     1      23.577  24.504  48.137  1.00  0.00     0.210 HD
ENDBRANCH  37  38
ENDBRANCH  31  37
BRANCH  32  40
ATOM     40  O   UNL     1      27.153  28.346  46.976  1.00  0.00    -0.387 OA
ATOM     41  H   UNL     1      27.384  28.451  47.932  1.00  0.00     0.211 HD
ENDBRANCH  32  40
ENDBRANCH   1  27
TORSDOF 12
ENDMDL
MODEL 4
REMARK VINA RESULT:    -0.104      3.218      5.724
REMARK INTER + INTRA:          -2.084
REMARK INTER:                  -0.158
REMARK INTRA:                  -1.926
REMARK UNBOUND:                -1.931
REMARK SMILES O=c1c(O[C@H]2O[C@@H](CO)[C@H](O)[C@@H](O)[C@@H]2O)c(-c2ccc(O)c(O)c2)oc2cc(O)cc(O)c12
REMARK SMILES IDX 4 1 3 2 16 3 25 4 2 5 26 6 1 7 33 8 27 9 31 10 28 11 30 12
REMARK SMILES IDX 17 13 18 14 19 15 20 16 24 17 22 18 21 19 23 21 32 23 29 25
REMARK SMILES IDX 5 27 14 28 6 29 12 30 7 31 10 32 15 33 13 35 8 37 9 38 11 40
REMARK H PARENT 21 20 23 22 32 24 29 26 15 34 13 36 9 39 11 41
REMARK Flexibility Score: inf
ROOT
ATOM      1  O   UNL     1      23.973  28.157  48.787  1.00  0.00    -0.454 OA
ENDROOT
BRANCH   1   2
ATOM      2  C   UNL     1      24.921  27.224  49.254  1.00  0.00     0.214 A 
ATOM      3  C   UNL     1      25.728  27.338  50.420  1.00  0.00     0.180 A 
ATOM      4  O   UNL     1      26.665  26.424  50.657  1.00  0.00    -0.452 OA
ATOM      5  C   UNL     1      25.085  26.080  48.448  1.00  0.00     0.239 A 
ATOM      6  C   UNL     1      26.881  25.368  49.891  1.00  0.00     0.146 A 
ATOM      7  O   UNL     1      24.345  25.933  47.440  1.00  0.00    -0.285 OA
ATOM      8  C   UNL     1      26.070  25.124  48.762  1.00  0.00     0.111 A 
ATOM      9  C   UNL     1      27.914  24.486  50.222  1.00  0.00     0.094 A 
ATOM     10  C   UNL     1      26.291  23.955  47.994  1.00  0.00     0.134 A 
ATOM     11  C   UNL     1      28.147  23.348  49.451  1.00  0.00     0.123 A 
ATOM     12  C   UNL     1      27.328  23.078  48.351  1.00  0.00     0.093 A 
BRANCH   3  13
ATOM     13  C   UNL     1      25.599  28.404  51.427  1.00  0.00     0.025 A 
ATOM     14  C   UNL     1      26.509  29.473  51.460  1.00  0.00     0.016 A 
ATOM     15  C   UNL     1      26.323  30.529  52.356  1.00  0.00     0.051 A 
ATOM     16  C   UNL     1      25.202  30.555  53.197  1.00  0.00     0.157 A 
ATOM     17  C   UNL     1      24.455  28.451  52.243  1.00  0.00     0.062 A 
ATOM     18  C   UNL     1      24.259  29.513  53.134  1.00  0.00     0.158 A 
BRANCH  16  19
ATOM     19  O   UNL     1      25.038  31.622  54.078  1.00  0.00    -0.504 OA
ATOM     20  H   UNL     1      24.202  31.727  54.645  1.00  0.00     0.293 HD
ENDBRANCH  16  19
BRANCH  18  21
ATOM     21  O   UNL     1      23.135  29.538  53.958  1.00  0.00    -0.504 OA
ATOM     22  H   UNL     1      22.226  29.230  53.625  1.00  0.00     0.293 HD
ENDBRANCH  18  21
ENDBRANCH   3  13
BRANCH  10  23
ATOM     23  O   UNL     1      25.486  23.652  46.891  1.00  0.00    -0.507 OA
ATOM     24  H   UNL     1      24.483  23.572  46.979  1.00  0.00     0.293 HD
ENDBRANCH  10  23
BRANCH  11  25
ATOM     25  O   UNL     1      29.189  22.477  49.763  1.00  0.00    -0.508 OA
ATOM     26  H   UNL     1      29.099  21.792  50.501  1.00  0.00     0.293 HD
ENDBRANCH  11  25
ENDBRANCH   1   2
BRANCH   1  27
ATOM     27  C   UNL     1      24.130  29.373  48.057  1.00  0.00     0.339 C 
ATOM     28  C   UNL     1      23.929  30.567  49.012  1.00  0.00     0.214 C 
ATOM     29  O   UNL     1      23.338  29.431  46.875  1.00  0.00    -0.332 OA
ATOM     30  C   UNL     1      22.433  30.806  49.328  1.00  0.00     0.180 C 
ATOM     31  C   UNL     1      21.945  29.674  47.068  1.00  0.00     0.179 C 
ATOM     32  C   UNL     1      21.617  30.864  48.032  1.00  0.00     0.177 C 
BRANCH  28  33
ATOM     33  O   UNL     1      24.501  31.717  48.444  1.00  0.00    -0.384 OA
ATOM     34  H   UNL     1      23.805  32.425  48.463  1.00  0.00     0.211 HD
ENDBRANCH  28  33
BRANCH  30  35
ATOM     35  O   UNL     1      21.894  29.809  50.166  1.00  0.00    -0.387 OA
ATOM     36  H   UNL     1      21.762  30.189  51.087  1.00  0.00     0.211 HD
ENDBRANCH  30  35
BRANCH  31  37
ATOM     37  C   UNL     1      21.161  28.381  47.382  1.00  0.00     0.191 C 
BRANCH  37  38
ATOM     38  O   UNL     1      21.831  27.260  46.875  1.00  0.00    -0.394 OA
ATOM     39  H   UNL     1      21.650  27.230  45.900  1.00  0.00     0.210 HD
ENDBRANCH  37  38
ENDBRANCH  31  37
BRANCH  32  40
ATOM     40  O   UNL     1      21.781  32.114  47.397  1.00  0.00    -0.387 OA
ATOM     41  H   UNL     1      22.205  31.973  46.515  1.00  0.00     0.211 HD
ENDBRANCH  32  40
ENDBRANCH   1  27
TORSDOF 12
ENDMDL
MODEL 5
REMARK VINA RESULT:    -0.104      3.913      7.279
REMARK INTER + INTRA:          -2.083
REMARK INTER:                  -0.151
REMARK INTRA:                  -1.932
REMARK UNBOUND:                -1.931
REMARK SMILES O=c1c(O[C@H]2O[C@@H](CO)[C@H](O)[C@@H](O)[C@@H]2O)c(-c2ccc(O)c(O)c2)oc2cc(O)cc(O)c12
REMARK SMILES IDX 4 1 3 2 16 3 25 4 2 5 26 6 1 7 33 8 27 9 31 10 28 11 30 12
REMARK SMILES IDX 17 13 18 14 19 15 20 16 24 17 22 18 21 19 23 21 32 23 29 25
REMARK SMILES IDX 5 27 14 28 6 29 12 30 7 31 10 32 15 33 13 35 8 37 9 38 11 40
REMARK H PARENT 21 20 23 22 32 24 29 26 15 34 13 36 9 39 11 41
REMARK Flexibility Score: inf
ROOT
ATOM      1  O   UNL     1      23.518  27.717  49.572  1.00  0.00    -0.454 OA
ENDROOT
BRANCH   1   2
ATOM      2  C   UNL     1      22.741  28.330  50.576  1.00  0.00     0.214 A 
ATOM      3  C   UNL     1      22.866  29.663  51.056  1.00  0.00     0.180 A 
ATOM      4  O   UNL     1      22.135  30.054  52.097  1.00  0.00    -0.452 OA
ATOM      5  C   UNL     1      21.765  27.506  51.168  1.00  0.00     0.239 A 
ATOM      6  C   UNL     1      21.249  29.286  52.708  1.00  0.00     0.146 A 
ATOM      7  O   UNL     1      21.601  26.339  50.722  1.00  0.00    -0.285 OA
ATOM      8  C   UNL     1      20.993  27.978  52.246  1.00  0.00     0.111 A 
ATOM      9  C   UNL     1      20.556  29.793  53.813  1.00  0.00     0.094 A 
ATOM     10  C   UNL     1      19.997  27.202  52.888  1.00  0.00     0.134 A 
ATOM     11  C   UNL     1      19.594  29.019  54.460  1.00  0.00     0.123 A 
ATOM     12  C   UNL     1      19.307  27.735  53.989  1.00  0.00     0.093 A 
BRANCH   3  13
ATOM     13  C   UNL     1      23.749  30.686  50.470  1.00  0.00     0.025 A 
ATOM     14  C   UNL     1      24.946  31.050  51.108  1.00  0.00     0.016 A 
ATOM     15  C   UNL     1      25.824  31.949  50.499  1.00  0.00     0.051 A 
ATOM     16  C   UNL     1      25.541  32.460  49.224  1.00  0.00     0.157 A 
ATOM     17  C   UNL     1      23.486  31.169  49.177  1.00  0.00     0.062 A 
ATOM     18  C   UNL     1      24.369  32.061  48.557  1.00  0.00     0.158 A 
BRANCH  16  19
ATOM     19  O   UNL     1      26.436  33.353  48.635  1.00  0.00    -0.504 OA
ATOM     20  H   UNL     1      27.063  33.928  49.188  1.00  0.00     0.293 HD
ENDBRANCH  16  19
BRANCH  18  21
ATOM     21  O   UNL     1      24.088  32.556  47.284  1.00  0.00    -0.504 OA
ATOM     22  H   UNL     1      23.142  32.557  46.913  1.00  0.00     0.293 HD
ENDBRANCH  18  21
ENDBRANCH   3  13
BRANCH  10  23
ATOM     23  O   UNL     1      19.682  25.915  52.439  1.00  0.00    -0.507 OA
ATOM     24  H   UNL     1      20.354  25.162  52.492  1.00  0.00     0.293 HD
ENDBRANCH  10  23
BRANCH  11  25
ATOM     25  O   UNL     1      18.916  29.510  55.574  1.00  0.00    -0.508 OA
ATOM     26  H   UNL     1      18.218  30.237  55.487  1.00  0.00     0.293 HD
ENDBRANCH  11  25
ENDBRANCH   1   2
BRANCH   1  27
ATOM     27  C   UNL     1      24.842  27.187  49.598  1.00  0.00     0.339 C 
ATOM     28  C   UNL     1      25.794  28.165  48.879  1.00  0.00     0.214 C 
ATOM     29  O   UNL     1      24.925  25.844  49.134  1.00  0.00    -0.332 OA
ATOM     30  C   UNL     1      25.657  28.075  47.341  1.00  0.00     0.180 C 
ATOM     31  C   UNL     1      24.835  25.666  47.721  1.00  0.00     0.179 C 
ATOM     32  C   UNL     1      25.753  26.616  46.881  1.00  0.00     0.177 C 
BRANCH  28  33
ATOM     33  O   UNL     1      27.116  27.899  49.272  1.00  0.00    -0.384 OA
ATOM     34  H   UNL     1      27.084  27.112  49.877  1.00  0.00     0.211 HD
ENDBRANCH  28  33
BRANCH  30  35
ATOM     35  O   UNL     1      24.445  28.624  46.875  1.00  0.00    -0.387 OA
ATOM     36  H   UNL     1      24.643  29.441  46.324  1.00  0.00     0.211 HD
ENDBRANCH  30  35
BRANCH  31  37
ATOM     37  C   UNL     1      23.372  25.616  47.228  1.00  0.00     0.191 C 
BRANCH  37  38
ATOM     38  O   UNL     1      22.522  25.155  48.243  1.00  0.00    -0.394 OA
ATOM     39  H   UNL     1      22.890  24.289  48.559  1.00  0.00     0.210 HD
ENDBRANCH  37  38
ENDBRANCH  31  37
BRANCH  32  40
ATOM     40  O   UNL     1      27.097  26.182  46.882  1.00  0.00    -0.387 OA
ATOM     41  H   UNL     1      27.573  26.609  46.128  1.00  0.00     0.211 HD
ENDBRANCH  32  40
ENDBRANCH   1  27
TORSDOF 12
ENDMDL
MODEL 6
REMARK VINA RESULT:    -0.100      3.695      7.045
REMARK INTER + INTRA:          -2.078
REMARK INTER:                  -0.148
REMARK INTRA:                  -1.930
REMARK UNBOUND:                -1.931
REMARK SMILES O=c1c(O[C@H]2O[C@@H](CO)[C@H](O)[C@@H](O)[C@@H]2O)c(-c2ccc(O)c(O)c2)oc2cc(O)cc(O)c12
REMARK SMILES IDX 4 1 3 2 16 3 25 4 2 5 26 6 1 7 33 8 27 9 31 10 28 11 30 12
REMARK SMILES IDX 17 13 18 14 19 15 20 16 24 17 22 18 21 19 23 21 32 23 29 25
REMARK SMILES IDX 5 27 14 28 6 29 12 30 7 31 10 32 15 33 13 35 8 37 9 38 11 40
REMARK H PARENT 21 20 23 22 32 24 29 26 15 34 13 36 9 39 11 41
REMARK Flexibility Score: inf
ROOT
ATOM      1  O   UNL     1      23.182  27.586  49.740  1.00  0.00    -0.454 OA
ENDROOT
BRANCH   1   2
ATOM      2  C   UNL     1      22.776  28.436  50.788  1.00  0.00     0.214 A 
ATOM      3  C   UNL     1      22.811  28.150  52.181  1.00  0.00     0.180 A 
ATOM      4  O   UNL     1      22.275  29.015  53.039  1.00  0.00    -0.452 OA
ATOM      5  C   UNL     1      22.260  29.683  50.384  1.00  0.00     0.239 A 
ATOM      6  C   UNL     1      21.734  30.169  52.686  1.00  0.00     0.146 A 
ATOM      7  O   UNL     1      22.268  29.979  49.160  1.00  0.00    -0.285 OA
ATOM      8  C   UNL     1      21.734  30.578  51.335  1.00  0.00     0.111 A 
ATOM      9  C   UNL     1      21.174  30.988  53.672  1.00  0.00     0.094 A 
ATOM     10  C   UNL     1      21.198  31.845  50.998  1.00  0.00     0.134 A 
ATOM     11  C   UNL     1      20.623  32.224  53.335  1.00  0.00     0.123 A 
ATOM     12  C   UNL     1      20.650  32.654  52.006  1.00  0.00     0.093 A 
BRANCH   3  13
ATOM     13  C   UNL     1      23.424  26.951  52.775  1.00  0.00     0.025 A 
ATOM     14  C   UNL     1      22.625  25.901  53.257  1.00  0.00     0.016 A 
ATOM     15  C   UNL     1      23.215  24.727  53.730  1.00  0.00     0.051 A 
ATOM     16  C   UNL     1      24.607  24.567  53.685  1.00  0.00     0.157 A 
ATOM     17  C   UNL     1      24.816  26.773  52.694  1.00  0.00     0.062 A 
ATOM     18  C   UNL     1      25.411  25.593  53.157  1.00  0.00     0.158 A 
BRANCH  16  19
ATOM     19  O   UNL     1      25.171  23.383  54.159  1.00  0.00    -0.504 OA
ATOM     20  H   UNL     1      25.952  23.382  54.807  1.00  0.00     0.293 HD
ENDBRANCH  16  19
BRANCH  18  21
ATOM     21  O   UNL     1      26.795  25.436  53.098  1.00  0.00    -0.504 OA
ATOM     22  H   UNL     1      27.256  24.634  53.518  1.00  0.00     0.293 HD
ENDBRANCH  18  21
ENDBRANCH   3  13
BRANCH  10  23
ATOM     23  O   UNL     1      21.213  32.308  49.679  1.00  0.00    -0.507 OA
ATOM     24  H   UNL     1      20.441  32.130  49.052  1.00  0.00     0.293 HD
ENDBRANCH  10  23
BRANCH  11  25
ATOM     25  O   UNL     1      20.044  33.035  54.310  1.00  0.00    -0.508 OA
ATOM     26  H   UNL     1      20.113  32.807  55.293  1.00  0.00     0.293 HD
ENDBRANCH  11  25
ENDBRANCH   1   2
BRANCH   1  27
ATOM     27  C   UNL     1      22.546  26.457  49.144  1.00  0.00     0.339 C 
ATOM     28  C   UNL     1      23.239  25.168  49.633  1.00  0.00     0.214 C 
ATOM     29  O   UNL     1      22.427  26.554  47.728  1.00  0.00    -0.332 OA
ATOM     30  C   UNL     1      24.593  24.937  48.920  1.00  0.00     0.180 C 
ATOM     31  C   UNL     1      23.624  26.329  46.984  1.00  0.00     0.179 C 
ATOM     32  C   UNL     1      24.422  25.048  47.401  1.00  0.00     0.177 C 
BRANCH  28  33
ATOM     33  O   UNL     1      22.382  24.074  49.428  1.00  0.00    -0.384 OA
ATOM     34  H   UNL     1      22.326  23.932  48.447  1.00  0.00     0.211 HD
ENDBRANCH  28  33
BRANCH  30  35
ATOM     35  O   UNL     1      25.584  25.847  49.339  1.00  0.00    -0.387 OA
ATOM     36  H   UNL     1      25.351  26.766  49.004  1.00  0.00     0.211 HD
ENDBRANCH  30  35
BRANCH  31  37
ATOM     37  C   UNL     1      24.496  27.599  46.876  1.00  0.00     0.191 C 
BRANCH  37  38
ATOM     38  O   UNL     1      23.702  28.752  46.942  1.00  0.00    -0.394 OA
ATOM     39  H   UNL     1      23.151  28.774  46.117  1.00  0.00     0.210 HD
ENDBRANCH  37  38
ENDBRANCH  31  37
BRANCH  32  40
ATOM     40  O   UNL     1      23.838  23.873  46.879  1.00  0.00    -0.387 OA
ATOM     41  H   UNL     1      22.895  24.059  46.648  1.00  0.00     0.211 HD
ENDBRANCH  32  40
ENDBRANCH   1  27
TORSDOF 12
ENDMDL
MODEL 7
REMARK VINA RESULT:    -0.098      3.751      6.127
REMARK INTER + INTRA:          -2.074
REMARK INTER:                  -0.144
REMARK INTRA:                  -1.930
REMARK UNBOUND:                -1.931
REMARK SMILES O=c1c(O[C@H]2O[C@@H](CO)[C@H](O)[C@@H](O)[C@@H]2O)c(-c2ccc(O)c(O)c2)oc2cc(O)cc(O)c12
REMARK SMILES IDX 4 1 3 2 16 3 25 4 2 5 26 6 1 7 33 8 27 9 31 10 28 11 30 12
REMARK SMILES IDX 17 13 18 14 19 15 20 16 24 17 22 18 21 19 23 21 32 23 29 25
REMARK SMILES IDX 5 27 14 28 6 29 12 30 7 31 10 32 15 33 13 35 8 37 9 38 11 40
REMARK H PARENT 21 20 23 22 32 24 29 26 15 34 13 36 9 39 11 41
REMARK Flexibility Score: inf
ROOT
ATOM      1  O   UNL     1      26.933  27.503  49.022  1.00  0.00    -0.454 OA
ENDROOT
BRANCH   1   2
ATOM      2  C   UNL     1      27.906  28.251  49.715  1.00  0.00     0.214 A 
ATOM      3  C   UNL     1      27.728  28.960  50.935  1.00  0.00     0.180 A 
ATOM      4  O   UNL     1      28.716  29.722  51.398  1.00  0.00    -0.452 OA
ATOM      5  C   UNL     1      29.171  28.308  49.098  1.00  0.00     0.239 A 
ATOM      6  C   UNL     1      29.897  29.839  50.813  1.00  0.00     0.146 A 
ATOM      7  O   UNL     1      29.367  27.645  48.045  1.00  0.00    -0.285 OA
ATOM      8  C   UNL     1      30.196  29.103  49.647  1.00  0.00     0.111 A 
ATOM      9  C   UNL     1      30.853  30.691  51.374  1.00  0.00     0.094 A 
ATOM     10  C   UNL     1      31.488  29.207  49.078  1.00  0.00     0.134 A 
ATOM     11  C   UNL     1      32.117  30.814  50.798  1.00  0.00     0.123 A 
ATOM     12  C   UNL     1      32.435  30.063  49.664  1.00  0.00     0.093 A 
BRANCH   3  13
ATOM     13  C   UNL     1      26.513  28.909  51.764  1.00  0.00     0.025 A 
ATOM     14  C   UNL     1      25.609  29.983  51.779  1.00  0.00     0.016 A 
ATOM     15  C   UNL     1      24.412  29.887  52.493  1.00  0.00     0.051 A 
ATOM     16  C   UNL     1      24.081  28.701  53.163  1.00  0.00     0.157 A 
ATOM     17  C   UNL     1      26.162  27.707  52.404  1.00  0.00     0.062 A 
ATOM     18  C   UNL     1      24.958  27.603  53.111  1.00  0.00     0.158 A 
BRANCH  16  19
ATOM     19  O   UNL     1      22.878  28.629  53.864  1.00  0.00    -0.504 OA
ATOM     20  H   UNL     1      22.850  28.517  54.872  1.00  0.00     0.293 HD
ENDBRANCH  16  19
BRANCH  18  21
ATOM     21  O   UNL     1      24.630  26.416  53.764  1.00  0.00    -0.504 OA
ATOM     22  H   UNL     1      25.241  25.604  53.729  1.00  0.00     0.293 HD
ENDBRANCH  18  21
ENDBRANCH   3  13
BRANCH  10  23
ATOM     23  O   UNL     1      31.841  28.466  47.945  1.00  0.00    -0.507 OA
ATOM     24  H   UNL     1      32.243  28.912  47.131  1.00  0.00     0.293 HD
ENDBRANCH  10  23
BRANCH  11  25
ATOM     25  O   UNL     1      33.066  31.678  51.340  1.00  0.00    -0.508 OA
ATOM     26  H   UNL     1      32.970  32.682  51.261  1.00  0.00     0.293 HD
ENDBRANCH  11  25
ENDBRANCH   1   2
BRANCH   1  27
ATOM     27  C   UNL     1      25.848  27.910  48.190  1.00  0.00     0.339 C 
ATOM     28  C   UNL     1      24.526  27.751  48.967  1.00  0.00     0.214 C 
ATOM     29  O   UNL     1      25.851  27.289  46.909  1.00  0.00    -0.332 OA
ATOM     30  C   UNL     1      24.075  26.272  49.040  1.00  0.00     0.180 C 
ATOM     31  C   UNL     1      25.424  25.928  46.875  1.00  0.00     0.179 C 
ATOM     32  C   UNL     1      24.090  25.641  47.643  1.00  0.00     0.177 C 
BRANCH  28  33
ATOM     33  O   UNL     1      23.533  28.538  48.361  1.00  0.00    -0.384 OA
ATOM     34  H   UNL     1      23.934  29.433  48.200  1.00  0.00     0.211 HD
ENDBRANCH  28  33
BRANCH  30  35
ATOM     35  O   UNL     1      24.886  25.504  49.899  1.00  0.00    -0.387 OA
ATOM     36  H   UNL     1      25.756  25.985  50.051  1.00  0.00     0.211 HD
ENDBRANCH  30  35
BRANCH  31  37
ATOM     37  C   UNL     1      26.565  24.945  47.218  1.00  0.00     0.191 C 
BRANCH  37  38
ATOM     38  O   UNL     1      27.810  25.494  46.880  1.00  0.00    -0.394 OA
ATOM     39  H   UNL     1      28.471  25.140  47.531  1.00  0.00     0.210 HD
ENDBRANCH  37  38
ENDBRANCH  31  37
BRANCH  32  40
ATOM     40  O   UNL     1      22.960  26.049  46.901  1.00  0.00    -0.387 OA
ATOM     41  H   UNL     1      23.219  26.151  45.952  1.00  0.00     0.211 HD
ENDBRANCH  32  40
ENDBRANCH   1  27
TORSDOF 12
ENDMDL
MODEL 8
REMARK VINA RESULT:    -0.096      2.957      5.438
REMARK INTER + INTRA:          -2.072
REMARK INTER:                  -0.142
REMARK INTRA:                  -1.930
REMARK UNBOUND:                -1.931
REMARK SMILES O=c1c(O[C@H]2O[C@@H](CO)[C@H](O)[C@@H](O)[C@@H]2O)c(-c2ccc(O)c(O)c2)oc2cc(O)cc(O)c12
REMARK SMILES IDX 4 1 3 2 16 3 25 4 2 5 26 6 1 7 33 8 27 9 31 10 28 11 30 12
REMARK SMILES IDX 17 13 18 14 19 15 20 16 24 17 22 18 21 19 23 21 32 23 29 25
REMARK SMILES IDX 5 27 14 28 6 29 12 30 7 31 10 32 15 33 13 35 8 37 9 38 11 40
REMARK H PARENT 21 20 23 22 32 24 29 26 15 34 13 36 9 39 11 41
REMARK Flexibility Score: inf
ROOT
ATOM      1  O   UNL     1      24.974  25.991  49.493  1.00  0.00    -0.454 OA
ENDROOT
BRANCH   1   2
ATOM      2  C   UNL     1      25.885  26.470  50.455  1.00  0.00     0.214 A 
ATOM      3  C   UNL     1      27.048  25.806  50.935  1.00  0.00     0.180 A 
ATOM      4  O   UNL     1      27.739  26.342  51.938  1.00  0.00    -0.452 OA
ATOM      5  C   UNL     1      25.572  27.730  51.003  1.00  0.00     0.239 A 
ATOM      6  C   UNL     1      27.440  27.497  52.509  1.00  0.00     0.146 A 
ATOM      7  O   UNL     1      24.577  28.359  50.555  1.00  0.00    -0.285 OA
ATOM      8  C   UNL     1      26.356  28.269  52.040  1.00  0.00     0.111 A 
ATOM      9  C   UNL     1      28.221  27.951  53.577  1.00  0.00     0.094 A 
ATOM     10  C   UNL     1      26.096  29.527  52.637  1.00  0.00     0.134 A 
ATOM     11  C   UNL     1      27.949  29.178  54.181  1.00  0.00     0.123 A 
ATOM     12  C   UNL     1      26.900  29.967  53.701  1.00  0.00     0.093 A 
BRANCH   3  13
ATOM     13  C   UNL     1      27.579  24.547  50.388  1.00  0.00     0.025 A 
ATOM     14  C   UNL     1      27.407  23.336  51.080  1.00  0.00     0.016 A 
ATOM     15  C   UNL     1      27.830  22.134  50.509  1.00  0.00     0.051 A 
ATOM     16  C   UNL     1      28.385  22.117  49.222  1.00  0.00     0.157 A 
ATOM     17  C   UNL     1      28.100  24.524  49.083  1.00  0.00     0.062 A 
ATOM     18  C   UNL     1      28.514  23.319  48.503  1.00  0.00     0.158 A 
BRANCH  16  19
ATOM     19  O   UNL     1      28.794  20.902  48.673  1.00  0.00    -0.504 OA
ATOM     20  H   UNL     1      28.560  20.013  49.102  1.00  0.00     0.293 HD
ENDBRANCH  16  19
BRANCH  18  21
ATOM     21  O   UNL     1      29.054  23.309  47.218  1.00  0.00    -0.504 OA
ATOM     22  H   UNL     1      30.004  22.993  47.044  1.00  0.00     0.293 HD
ENDBRANCH  18  21
ENDBRANCH   3  13
BRANCH  10  23
ATOM     23  O   UNL     1      25.058  30.345  52.179  1.00  0.00    -0.507 OA
ATOM     24  H   UNL     1      24.267  30.567  52.767  1.00  0.00     0.293 HD
ENDBRANCH  10  23
BRANCH  11  25
ATOM     25  O   UNL     1      28.710  29.626  55.259  1.00  0.00    -0.508 OA
ATOM     26  H   UNL     1      29.310  28.997  55.776  1.00  0.00     0.293 HD
ENDBRANCH  11  25
ENDBRANCH   1   2
BRANCH   1  27
ATOM     27  C   UNL     1      23.914  25.041  49.591  1.00  0.00     0.339 C 
ATOM     28  C   UNL     1      24.362  23.712  48.950  1.00  0.00     0.214 C 
ATOM     29  O   UNL     1      22.667  25.531  49.108  1.00  0.00    -0.332 OA
ATOM     30  C   UNL     1      24.325  23.777  47.404  1.00  0.00     0.180 C 
ATOM     31  C   UNL     1      22.532  25.601  47.689  1.00  0.00     0.179 C 
ATOM     32  C   UNL     1      22.969  24.306  46.925  1.00  0.00     0.177 C 
BRANCH  28  33
ATOM     33  O   UNL     1      23.542  22.671  49.418  1.00  0.00    -0.384 OA
ATOM     34  H   UNL     1      22.603  22.955  49.268  1.00  0.00     0.211 HD
ENDBRANCH  28  33
BRANCH  30  35
ATOM     35  O   UNL     1      25.348  24.589  46.875  1.00  0.00    -0.387 OA
ATOM     36  H   UNL     1      25.805  25.076  47.626  1.00  0.00     0.211 HD
ENDBRANCH  30  35
BRANCH  31  37
ATOM     37  C   UNL     1      23.129  26.901  47.106  1.00  0.00     0.191 C 
BRANCH  37  38
ATOM     38  O   UNL     1      23.118  27.925  48.063  1.00  0.00    -0.394 OA
ATOM     39  H   UNL     1      23.183  27.491  48.954  1.00  0.00     0.210 HD
ENDBRANCH  37  38
ENDBRANCH  31  37
BRANCH  32  40
ATOM     40  O   UNL     1      21.985  23.296  47.001  1.00  0.00    -0.387 OA
ATOM     41  H   UNL     1      21.091  23.714  46.946  1.00  0.00     0.211 HD
ENDBRANCH  32  40
ENDBRANCH   1  27
TORSDOF 12
ENDMDL
MODEL 9
REMARK VINA RESULT:     0.178      3.423      6.424
REMARK INTER + INTRA:          -1.670
REMARK INTER:                   0.260
REMARK INTRA:                  -1.930
REMARK UNBOUND:                -1.931
REMARK SMILES O=c1c(O[C@H]2O[C@@H](CO)[C@H](O)[C@@H](O)[C@@H]2O)c(-c2ccc(O)c(O)c2)oc2cc(O)cc(O)c12
REMARK SMILES IDX 4 1 3 2 16 3 25 4 2 5 26 6 1 7 33 8 27 9 31 10 28 11 30 12
REMARK SMILES IDX 17 13 18 14 19 15 20 16 24 17 22 18 21 19 23 21 32 23 29 25
REMARK SMILES IDX 5 27 14 28 6 29 12 30 7 31 10 32 15 33 13 35 8 37 9 38 11 40
REMARK H PARENT 21 20 23 22 32 24 29 26 15 34 13 36 9 39 11 41
REMARK Flexibility Score: inf
ROOT
ATOM      1  O   UNL     1      24.864  27.903  49.620  1.00  0.00    -0.454 OA
ENDROOT
BRANCH   1   2
ATOM      2  C   UNL     1      25.492  28.578  50.685  1.00  0.00     0.214 A 
ATOM      3  C   UNL     1      26.597  28.118  51.454  1.00  0.00     0.180 A 
ATOM      4  O   UNL     1      26.997  28.823  52.509  1.00  0.00    -0.452 OA
ATOM      5  C   UNL     1      24.929  29.825  51.022  1.00  0.00     0.239 A 
ATOM      6  C   UNL     1      26.454  29.970  52.883  1.00  0.00     0.146 A 
ATOM      7  O   UNL     1      23.983  30.275  50.321  1.00  0.00    -0.285 OA
ATOM      8  C   UNL     1      25.411  30.548  52.129  1.00  0.00     0.111 A 
ATOM      9  C   UNL     1      26.937  30.611  54.028  1.00  0.00     0.094 A 
ATOM     10  C   UNL     1      24.889  31.804  52.524  1.00  0.00     0.134 A 
ATOM     11  C   UNL     1      26.406  31.836  54.430  1.00  0.00     0.123 A 
ATOM     12  C   UNL     1      25.397  32.434  53.671  1.00  0.00     0.093 A 
BRANCH   3  13
ATOM     13  C   UNL     1      27.373  26.902  51.161  1.00  0.00     0.025 A 
ATOM     14  C   UNL     1      27.210  25.744  51.940  1.00  0.00     0.016 A 
ATOM     15  C   UNL     1      27.877  24.566  51.597  1.00  0.00     0.051 A 
ATOM     16  C   UNL     1      28.678  24.514  50.448  1.00  0.00     0.157 A 
ATOM     17  C   UNL     1      28.144  26.837  49.988  1.00  0.00     0.062 A 
ATOM     18  C   UNL     1      28.805  25.655  49.635  1.00  0.00     0.158 A 
BRANCH  16  19
ATOM     19  O   UNL     1      29.329  23.324  50.125  1.00  0.00    -0.504 OA
ATOM     20  H   UNL     1      29.175  22.468  50.648  1.00  0.00     0.293 HD
ENDBRANCH  16  19
BRANCH  18  21
ATOM     21  O   UNL     1      29.590  25.608  48.484  1.00  0.00    -0.504 OA
ATOM     22  H   UNL     1      30.296  24.890  48.352  1.00  0.00     0.293 HD
ENDBRANCH  18  21
ENDBRANCH   3  13
BRANCH  10  23
ATOM     23  O   UNL     1      23.882  32.434  51.784  1.00  0.00    -0.507 OA
ATOM     24  H   UNL     1      22.905  32.282  51.994  1.00  0.00     0.293 HD
ENDBRANCH  10  23
BRANCH  11  25
ATOM     25  O   UNL     1      26.868  32.469  55.582  1.00  0.00    -0.508 OA
ATOM     26  H   UNL     1      27.180  33.431  55.565  1.00  0.00     0.293 HD
ENDBRANCH  11  25
ENDBRANCH   1   2
BRANCH   1  27
ATOM     27  C   UNL     1      23.942  26.813  49.608  1.00  0.00     0.339 C 
ATOM     28  C   UNL     1      24.679  25.531  49.172  1.00  0.00     0.214 C 
ATOM     29  O   UNL     1      22.754  27.083  48.872  1.00  0.00    -0.332 OA
ATOM     30  C   UNL     1      24.925  25.499  47.645  1.00  0.00     0.180 C 
ATOM     31  C   UNL     1      22.880  27.049  47.451  1.00  0.00     0.179 C 
ATOM     32  C   UNL     1      23.624  25.792  46.889  1.00  0.00     0.177 C 
BRANCH  28  33
ATOM     33  O   UNL     1      23.935  24.408  49.574  1.00  0.00    -0.384 OA
ATOM     34  H   UNL     1      24.109  23.694  48.906  1.00  0.00     0.211 HD
ENDBRANCH  28  33
BRANCH  30  35
ATOM     35  O   UNL     1      25.909  26.422  47.239  1.00  0.00    -0.387 OA
ATOM     36  H   UNL     1      25.542  27.354  47.320  1.00  0.00     0.211 HD
ENDBRANCH  30  35
BRANCH  31  37
ATOM     37  C   UNL     1      23.394  28.387  46.875  1.00  0.00     0.191 C 
BRANCH  37  38
ATOM     38  O   UNL     1      23.036  29.455  47.708  1.00  0.00    -0.394 OA
ATOM     39  H   UNL     1      22.462  30.063  47.173  1.00  0.00     0.210 HD
ENDBRANCH  37  38
ENDBRANCH  31  37
BRANCH  32  40
ATOM     40  O   UNL     1      22.790  24.652  46.875  1.00  0.00    -0.387 OA
ATOM     41  H   UNL     1      22.787  24.267  45.964  1.00  0.00     0.211 HD
ENDBRANCH  32  40
ENDBRANCH   1  27
TORSDOF 12
ENDMDL
