MODEL 1
REMARK VINA RESULT:    -4.308      0.000      0.000
REMARK INTER + INTRA:          -8.365
REMARK INTER:                  -7.331
REMARK INTRA:                  -1.035
REMARK UNBOUND:                -1.035
REMARK SMILES CCCCCCCCCCCCCC(=O)[O-]
REMARK SMILES IDX 8 1 9 2 10 3 11 4 12 5 13 6 14 7 15 8 16 9 7 10 6 11 5 12
REMARK SMILES IDX 4 13 3 14 2 15 1 16
REMARK H PARENT
REMARK Flexibility Score: inf
ROOT
ATOM      1  C   UNL     1      59.261  -7.230  82.508  1.00  0.00     0.000 C 
ENDROOT
BRANCH   1   2
ATOM      2  C   UNL     1      60.731  -6.986  82.891  1.00  0.00     0.000 C 
BRANCH   2   3
ATOM      3  C   UNL     1      61.701  -7.252  81.726  1.00  0.00     0.000 C 
BRANCH   3   4
ATOM      4  C   UNL     1      61.074  -7.960  80.506  1.00  0.00     0.000 C 
BRANCH   4   5
ATOM      5  C   UNL     1      61.714  -9.312  80.132  1.00  0.00     0.006 C 
BRANCH   5   6
ATOM      6  C   UNL     1      60.773 -10.518  80.270  1.00  0.00     0.053 C 
BRANCH   6   7
ATOM      7  C   UNL     1      60.393 -10.770  81.697  1.00  0.00     0.041 C 
ATOM      8  O   UNL     1      59.181 -10.867  82.023  1.00  0.00    -0.550 OA
ATOM      9  O   UNL     1      61.377 -10.864  82.672  1.00  0.00    -0.550 OA
ENDBRANCH   6   7
ENDBRANCH   5   6
ENDBRANCH   4   5
ENDBRANCH   3   4
ENDBRANCH   2   3
ENDBRANCH   1   2
BRANCH   1  10
ATOM     10  C   UNL     1      58.426  -5.940  82.505  1.00  0.00     0.000 C 
BRANCH  10  11
ATOM     11  C   UNL     1      59.293  -4.679  82.662  1.00  0.00    -0.000 C 
BRANCH  11  12
ATOM     12  C   UNL     1      58.563  -3.393  82.228  1.00  0.00    -0.000 C 
BRANCH  12  13
ATOM     13  C   UNL     1      57.043  -3.538  82.031  1.00  0.00    -0.000 C 
BRANCH  13  14
ATOM     14  C   UNL     1      56.180  -2.564  82.856  1.00  0.00    -0.000 C 
BRANCH  14  15
ATOM     15  C   UNL     1      56.910  -1.263  83.247  1.00  0.00    -0.003 C 
ATOM     16  C   UNL     1      56.105  -0.402  84.221  1.00  0.00     0.004 C 
ENDBRANCH  14  15
ENDBRANCH  13  14
ENDBRANCH  12  13
ENDBRANCH  11  12
ENDBRANCH  10  11
ENDBRANCH   1  10
TORSDOF 12
ENDMDL
MODEL 2
REMARK VINA RESULT:    -4.299     13.000     15.000
REMARK INTER + INTRA:          -8.350
REMARK INTER:                  -6.574
REMARK INTRA:                  -1.776
REMARK UNBOUND:                -1.035
REMARK SMILES CCCCCCCCCCCCCC(=O)[O-]
REMARK SMILES IDX 8 1 9 2 10 3 11 4 12 5 13 6 14 7 15 8 16 9 7 10 6 11 5 12
REMARK SMILES IDX 4 13 3 14 2 15 1 16
REMARK H PARENT
REMARK Flexibility Score: inf
ROOT
ATOM      1  C   UNL     1      47.564   0.449  74.079  1.00  0.00     0.000 C 
ENDROOT
BRANCH   1   2
ATOM      2  C   UNL     1      48.388   0.705  72.805  1.00  0.00     0.000 C 
BRANCH   2   3
ATOM      3  C   UNL     1      48.234  -0.416  71.761  1.00  0.00     0.000 C 
BRANCH   3   4
ATOM      4  C   UNL     1      49.488  -1.291  71.557  1.00  0.00     0.000 C 
BRANCH   4   5
ATOM      5  C   UNL     1      50.746  -0.820  72.313  1.00  0.00     0.006 C 
BRANCH   5   6
ATOM      6  C   UNL     1      51.641  -1.960  72.824  1.00  0.00     0.053 C 
BRANCH   6   7
ATOM      7  C   UNL     1      53.035  -1.861  72.284  1.00  0.00     0.041 C 
ATOM      8  O   UNL     1      53.872  -2.771  72.517  1.00  0.00    -0.550 OA
ATOM      9  O   UNL     1      53.418  -0.746  71.550  1.00  0.00    -0.550 OA
ENDBRANCH   6   7
ENDBRANCH   5   6
ENDBRANCH   4   5
ENDBRANCH   3   4
ENDBRANCH   2   3
ENDBRANCH   1   2
BRANCH   1  10
ATOM     10  C   UNL     1      48.290  -0.460  75.083  1.00  0.00     0.000 C 
BRANCH  10  11
ATOM     11  C   UNL     1      47.327  -1.400  75.828  1.00  0.00    -0.000 C 
BRANCH  11  12
ATOM     12  C   UNL     1      47.457  -2.868  75.381  1.00  0.00    -0.000 C 
BRANCH  12  13
ATOM     13  C   UNL     1      48.849  -3.273  74.862  1.00  0.00    -0.000 C 
BRANCH  13  14
ATOM     14  C   UNL     1      48.847  -4.296  73.710  1.00  0.00    -0.000 C 
BRANCH  14  15
ATOM     15  C   UNL     1      47.628  -4.175  72.771  1.00  0.00    -0.003 C 
ATOM     16  C   UNL     1      47.171  -5.524  72.219  1.00  0.00     0.004 C 
ENDBRANCH  14  15
ENDBRANCH  13  14
ENDBRANCH  12  13
ENDBRANCH  11  12
ENDBRANCH  10  11
ENDBRANCH   1  10
TORSDOF 12
ENDMDL
MODEL 3
REMARK VINA RESULT:    -4.242      1.208      2.072
REMARK INTER + INTRA:          -8.253
REMARK INTER:                  -7.514
REMARK INTRA:                  -0.738
REMARK UNBOUND:                -1.035
REMARK SMILES CCCCCCCCCCCCCC(=O)[O-]
REMARK SMILES IDX 8 1 9 2 10 3 11 4 12 5 13 6 14 7 15 8 16 9 7 10 6 11 5 12
REMARK SMILES IDX 4 13 3 14 2 15 1 16
REMARK H PARENT
REMARK Flexibility Score: inf
ROOT
ATOM      1  C   UNL     1      59.118  -4.956  82.622  1.00  0.00     0.000 C 
ENDROOT
BRANCH   1   2
ATOM      2  C   UNL     1      59.329  -6.235  83.451  1.00  0.00     0.000 C 
BRANCH   2   3
ATOM      3  C   UNL     1      60.723  -6.854  83.244  1.00  0.00     0.000 C 
BRANCH   3   4
ATOM      4  C   UNL     1      61.274  -6.751  81.807  1.00  0.00     0.000 C 
BRANCH   4   5
ATOM      5  C   UNL     1      60.952  -7.951  80.894  1.00  0.00     0.006 C 
BRANCH   5   6
ATOM      6  C   UNL     1      60.800  -9.288  81.636  1.00  0.00     0.053 C 
BRANCH   6   7
ATOM      7  C   UNL     1      59.430  -9.869  81.465  1.00  0.00     0.041 C 
ATOM      8  O   UNL     1      59.136 -10.970  81.999  1.00  0.00    -0.550 OA
ATOM      9  O   UNL     1      58.488  -9.209  80.686  1.00  0.00    -0.550 OA
ENDBRANCH   6   7
ENDBRANCH   5   6
ENDBRANCH   4   5
ENDBRANCH   3   4
ENDBRANCH   2   3
ENDBRANCH   1   2
BRANCH   1  10
ATOM     10  C   UNL     1      57.646  -4.731  82.242  1.00  0.00     0.000 C 
BRANCH  10  11
ATOM     11  C   UNL     1      57.342  -3.260  81.911  1.00  0.00    -0.000 C 
BRANCH  11  12
ATOM     12  C   UNL     1      58.257  -2.276  82.665  1.00  0.00    -0.000 C 
BRANCH  12  13
ATOM     13  C   UNL     1      57.538  -1.076  83.308  1.00  0.00    -0.000 C 
BRANCH  13  14
ATOM     14  C   UNL     1      56.015  -1.238  83.479  1.00  0.00    -0.000 C 
BRANCH  14  15
ATOM     15  C   UNL     1      55.311   0.024  84.018  1.00  0.00    -0.003 C 
ATOM     16  C   UNL     1      53.940   0.253  83.383  1.00  0.00     0.004 C 
ENDBRANCH  14  15
ENDBRANCH  13  14
ENDBRANCH  12  13
ENDBRANCH  11  12
ENDBRANCH  10  11
ENDBRANCH   1  10
TORSDOF 12
ENDMDL
MODEL 4
REMARK VINA RESULT:    -4.217     13.097     14.966
REMARK INTER + INTRA:          -8.210
REMARK INTER:                  -6.344
REMARK INTRA:                  -1.866
REMARK UNBOUND:                -1.035
REMARK SMILES CCCCCCCCCCCCCC(=O)[O-]
REMARK SMILES IDX 8 1 9 2 10 3 11 4 12 5 13 6 14 7 15 8 16 9 7 10 6 11 5 12
REMARK SMILES IDX 4 13 3 14 2 15 1 16
REMARK H PARENT
REMARK Flexibility Score: inf
ROOT
ATOM      1  C   UNL     1      50.850  -1.528  72.186  1.00  0.00     0.000 C 
ENDROOT
BRANCH   1   2
ATOM      2  C   UNL     1      49.822  -2.605  71.799  1.00  0.00     0.000 C 
BRANCH   2   3
ATOM      3  C   UNL     1      50.257  -4.021  72.219  1.00  0.00     0.000 C 
BRANCH   3   4
ATOM      4  C   UNL     1      49.099  -4.990  72.533  1.00  0.00     0.000 C 
BRANCH   4   5
ATOM      5  C   UNL     1      47.704  -4.340  72.617  1.00  0.00     0.006 C 
BRANCH   5   6
ATOM      6  C   UNL     1      46.893  -4.739  73.860  1.00  0.00     0.053 C 
BRANCH   6   7
ATOM      7  C   UNL     1      45.888  -5.806  73.552  1.00  0.00     0.041 C 
ATOM      8  O   UNL     1      44.975  -6.074  74.376  1.00  0.00    -0.550 OA
ATOM      9  O   UNL     1      45.980  -6.527  72.369  1.00  0.00    -0.550 OA
ENDBRANCH   6   7
ENDBRANCH   5   6
ENDBRANCH   4   5
ENDBRANCH   3   4
ENDBRANCH   2   3
ENDBRANCH   1   2
BRANCH   1  10
ATOM     10  C   UNL     1      50.236  -0.122  72.265  1.00  0.00     0.000 C 
BRANCH  10  11
ATOM     11  C   UNL     1      48.730  -0.120  71.951  1.00  0.00    -0.000 C 
BRANCH  11  12
ATOM     12  C   UNL     1      47.878   0.434  73.109  1.00  0.00    -0.000 C 
BRANCH  12  13
ATOM     13  C   UNL     1      48.338   0.017  74.518  1.00  0.00    -0.000 C 
BRANCH  13  14
ATOM     14  C   UNL     1      47.897  -1.391  74.962  1.00  0.00    -0.000 C 
BRANCH  14  15
ATOM     15  C   UNL     1      48.747  -1.977  76.107  1.00  0.00    -0.003 C 
ATOM     16  C   UNL     1      50.118  -2.464  75.637  1.00  0.00     0.004 C 
ENDBRANCH  14  15
ENDBRANCH  13  14
ENDBRANCH  12  13
ENDBRANCH  11  12
ENDBRANCH  10  11
ENDBRANCH   1  10
TORSDOF 12
ENDMDL
MODEL 5
REMARK VINA RESULT:    -4.067     12.708     15.186
REMARK INTER + INTRA:          -7.955
REMARK INTER:                  -6.683
REMARK INTRA:                  -1.272
REMARK UNBOUND:                -1.035
REMARK SMILES CCCCCCCCCCCCCC(=O)[O-]
REMARK SMILES IDX 8 1 9 2 10 3 11 4 12 5 13 6 14 7 15 8 16 9 7 10 6 11 5 12
REMARK SMILES IDX 4 13 3 14 2 15 1 16
REMARK H PARENT
REMARK Flexibility Score: inf
ROOT
ATOM      1  C   UNL     1      49.365  -3.397  74.396  1.00  0.00     0.000 C 
ENDROOT
BRANCH   1   2
ATOM      2  C   UNL     1      48.655  -2.897  73.126  1.00  0.00     0.000 C 
BRANCH   2   3
ATOM      3  C   UNL     1      49.638  -2.392  72.055  1.00  0.00     0.000 C 
BRANCH   3   4
ATOM      4  C   UNL     1      49.526  -0.889  71.725  1.00  0.00     0.000 C 
BRANCH   4   5
ATOM      5  C   UNL     1      48.120  -0.282  71.904  1.00  0.00     0.006 C 
BRANCH   5   6
ATOM      6  C   UNL     1      48.090   1.015  72.726  1.00  0.00     0.053 C 
BRANCH   6   7
ATOM      7  C   UNL     1      47.178   0.908  73.909  1.00  0.00     0.041 C 
ATOM      8  O   UNL     1      47.401   0.055  74.807  1.00  0.00    -0.550 OA
ATOM      9  O   UNL     1      46.060   1.728  74.001  1.00  0.00    -0.550 OA
ENDBRANCH   6   7
ENDBRANCH   5   6
ENDBRANCH   4   5
ENDBRANCH   3   4
ENDBRANCH   2   3
ENDBRANCH   1   2
BRANCH   1  10
ATOM     10  C   UNL     1      50.858  -3.034  74.424  1.00  0.00     0.000 C 
BRANCH  10  11
ATOM     11  C   UNL     1      51.764  -4.277  74.457  1.00  0.00    -0.000 C 
BRANCH  11  12
ATOM     12  C   UNL     1      53.047  -4.105  73.621  1.00  0.00    -0.000 C 
BRANCH  12  13
ATOM     13  C   UNL     1      53.566  -2.660  73.508  1.00  0.00    -0.000 C 
BRANCH  13  14
ATOM     14  C   UNL     1      53.681  -2.114  72.072  1.00  0.00    -0.000 C 
BRANCH  14  15
ATOM     15  C   UNL     1      53.037  -0.725  71.880  1.00  0.00    -0.003 C 
ATOM     16  C   UNL     1      53.823   0.163  70.915  1.00  0.00     0.004 C 
ENDBRANCH  14  15
ENDBRANCH  13  14
ENDBRANCH  12  13
ENDBRANCH  11  12
ENDBRANCH  10  11
ENDBRANCH   1  10
TORSDOF 12
ENDMDL
MODEL 6
REMARK VINA RESULT:    -4.046      4.173      7.885
REMARK INTER + INTRA:          -7.919
REMARK INTER:                  -7.009
REMARK INTRA:                  -0.910
REMARK UNBOUND:                -1.035
REMARK SMILES CCCCCCCCCCCCCC(=O)[O-]
REMARK SMILES IDX 8 1 9 2 10 3 11 4 12 5 13 6 14 7 15 8 16 9 7 10 6 11 5 12
REMARK SMILES IDX 4 13 3 14 2 15 1 16
REMARK H PARENT
REMARK Flexibility Score: inf
ROOT
ATOM      1  C   UNL     1      59.264  -6.547  82.491  1.00  0.00     0.000 C 
ENDROOT
BRANCH   1   2
ATOM      2  C   UNL     1      58.764  -5.143  82.875  1.00  0.00     0.000 C 
BRANCH   2   3
ATOM      3  C   UNL     1      59.496  -4.023  82.115  1.00  0.00     0.000 C 
BRANCH   3   4
ATOM      4  C   UNL     1      58.604  -2.841  81.680  1.00  0.00     0.000 C 
BRANCH   4   5
ATOM      5  C   UNL     1      57.973  -2.037  82.835  1.00  0.00     0.006 C 
BRANCH   5   6
ATOM      6  C   UNL     1      56.440  -2.113  82.896  1.00  0.00     0.053 C 
BRANCH   6   7
ATOM      7  C   UNL     1      55.844  -0.891  83.524  1.00  0.00     0.041 C 
ATOM      8  O   UNL     1      56.528  -0.182  84.308  1.00  0.00    -0.550 OA
ATOM      9  O   UNL     1      54.520  -0.555  83.270  1.00  0.00    -0.550 OA
ENDBRANCH   6   7
ENDBRANCH   5   6
ENDBRANCH   4   5
ENDBRANCH   3   4
ENDBRANCH   2   3
ENDBRANCH   1   2
BRANCH   1  10
ATOM     10  C   UNL     1      60.637  -6.874  83.096  1.00  0.00     0.000 C 
BRANCH  10  11
ATOM     11  C   UNL     1      61.749  -6.935  82.034  1.00  0.00    -0.000 C 
BRANCH  11  12
ATOM     12  C   UNL     1      61.410  -7.884  80.868  1.00  0.00    -0.000 C 
BRANCH  12  13
ATOM     13  C   UNL     1      61.356  -9.378  81.235  1.00  0.00    -0.000 C 
BRANCH  13  14
ATOM     14  C   UNL     1      60.032 -10.089  80.894  1.00  0.00    -0.000 C 
BRANCH  14  15
ATOM     15  C   UNL     1      59.313  -9.507  79.661  1.00  0.00    -0.003 C 
ATOM     16  C   UNL     1      57.803  -9.381  79.862  1.00  0.00     0.004 C 
ENDBRANCH  14  15
ENDBRANCH  13  14
ENDBRANCH  12  13
ENDBRANCH  11  12
ENDBRANCH  10  11
ENDBRANCH   1  10
TORSDOF 12
ENDMDL
MODEL 7
REMARK VINA RESULT:    -4.038     12.215     14.255
REMARK INTER + INTRA:          -7.905
REMARK INTER:                  -6.315
REMARK INTRA:                  -1.590
REMARK UNBOUND:                -1.035
REMARK SMILES CCCCCCCCCCCCCC(=O)[O-]
REMARK SMILES IDX 8 1 9 2 10 3 11 4 12 5 13 6 14 7 15 8 16 9 7 10 6 11 5 12
REMARK SMILES IDX 4 13 3 14 2 15 1 16
REMARK H PARENT
REMARK Flexibility Score: inf
ROOT
ATOM      1  C   UNL     1      47.689  -4.479  72.595  1.00  0.00     0.000 C 
ENDROOT
BRANCH   1   2
ATOM      2  C   UNL     1      49.116  -4.978  72.310  1.00  0.00     0.000 C 
BRANCH   2   3
ATOM      3  C   UNL     1      50.067  -3.846  71.880  1.00  0.00     0.000 C 
BRANCH   3   4
ATOM      4  C   UNL     1      49.575  -2.422  72.212  1.00  0.00     0.000 C 
BRANCH   4   5
ATOM      5  C   UNL     1      50.655  -1.324  72.150  1.00  0.00     0.006 C 
BRANCH   5   6
ATOM      6  C   UNL     1      51.926  -1.639  72.953  1.00  0.00     0.053 C 
BRANCH   6   7
ATOM      7  C   UNL     1      53.148  -1.648  72.087  1.00  0.00     0.041 C 
ATOM      8  O   UNL     1      53.512  -0.601  71.492  1.00  0.00    -0.550 OA
ATOM      9  O   UNL     1      53.865  -2.824  71.911  1.00  0.00    -0.550 OA
ENDBRANCH   6   7
ENDBRANCH   5   6
ENDBRANCH   4   5
ENDBRANCH   3   4
ENDBRANCH   2   3
ENDBRANCH   1   2
BRANCH   1  10
ATOM     10  C   UNL     1      46.783  -5.574  73.180  1.00  0.00     0.000 C 
BRANCH  10  11
ATOM     11  C   UNL     1      45.823  -5.031  74.253  1.00  0.00    -0.000 C 
BRANCH  11  12
ATOM     12  C   UNL     1      46.546  -4.224  75.348  1.00  0.00    -0.000 C 
BRANCH  12  13
ATOM     13  C   UNL     1      47.603  -5.006  76.149  1.00  0.00    -0.000 C 
BRANCH  13  14
ATOM     14  C   UNL     1      49.030  -4.427  76.091  1.00  0.00    -0.000 C 
BRANCH  14  15
ATOM     15  C   UNL     1      49.075  -2.907  75.831  1.00  0.00    -0.003 C 
ATOM     16  C   UNL     1      50.357  -2.256  76.349  1.00  0.00     0.004 C 
ENDBRANCH  14  15
ENDBRANCH  13  14
ENDBRANCH  12  13
ENDBRANCH  11  12
ENDBRANCH  10  11
ENDBRANCH   1  10
TORSDOF 12
ENDMDL
MODEL 8
REMARK VINA RESULT:    -4.032     11.478     14.156
REMARK INTER + INTRA:          -7.895
REMARK INTER:                  -6.379
REMARK INTRA:                  -1.515
REMARK UNBOUND:                -1.035
REMARK SMILES CCCCCCCCCCCCCC(=O)[O-]
REMARK SMILES IDX 8 1 9 2 10 3 11 4 12 5 13 6 14 7 15 8 16 9 7 10 6 11 5 12
REMARK SMILES IDX 4 13 3 14 2 15 1 16
REMARK H PARENT
REMARK Flexibility Score: inf
ROOT
ATOM      1  C   UNL     1      47.862   0.482  72.888  1.00  0.00     0.000 C 
ENDROOT
BRANCH   1   2
ATOM      2  C   UNL     1      48.783   0.469  74.120  1.00  0.00     0.000 C 
BRANCH   2   3
ATOM      3  C   UNL     1      48.177  -0.300  75.308  1.00  0.00     0.000 C 
BRANCH   3   4
ATOM      4  C   UNL     1      48.524  -1.803  75.355  1.00  0.00     0.000 C 
BRANCH   4   5
ATOM      5  C   UNL     1      49.990  -2.126  75.709  1.00  0.00     0.006 C 
BRANCH   5   6
ATOM      6  C   UNL     1      50.156  -3.201  76.794  1.00  0.00     0.053 C 
BRANCH   6   7
ATOM      7  C   UNL     1      50.136  -2.614  78.171  1.00  0.00     0.041 C 
ATOM      8  O   UNL     1      50.451  -1.409  78.353  1.00  0.00    -0.550 OA
ATOM      9  O   UNL     1      49.803  -3.409  79.260  1.00  0.00    -0.550 OA
ENDBRANCH   6   7
ENDBRANCH   5   6
ENDBRANCH   4   5
ENDBRANCH   3   4
ENDBRANCH   2   3
ENDBRANCH   1   2
BRANCH   1  10
ATOM     10  C   UNL     1      48.377  -0.418  71.753  1.00  0.00     0.000 C 
BRANCH  10  11
ATOM     11  C   UNL     1      49.830  -0.870  71.974  1.00  0.00    -0.000 C 
BRANCH  11  12
ATOM     12  C   UNL     1      49.995  -2.401  71.925  1.00  0.00    -0.000 C 
BRANCH  12  13
ATOM     13  C   UNL     1      51.360  -2.928  72.404  1.00  0.00    -0.000 C 
BRANCH  13  14
ATOM     14  C   UNL     1      52.367  -1.845  72.837  1.00  0.00    -0.000 C 
BRANCH  14  15
ATOM     15  C   UNL     1      53.516  -1.625  71.831  1.00  0.00    -0.003 C 
ATOM     16  C   UNL     1      53.543  -0.206  71.264  1.00  0.00     0.004 C 
ENDBRANCH  14  15
ENDBRANCH  13  14
ENDBRANCH  12  13
ENDBRANCH  11  12
ENDBRANCH  10  11
ENDBRANCH   1  10
TORSDOF 12
ENDMDL
MODEL 9
REMARK VINA RESULT:    -3.996     11.643     13.752
REMARK INTER + INTRA:          -7.834
REMARK INTER:                  -5.869
REMARK INTRA:                  -1.965
REMARK UNBOUND:                -1.035
REMARK SMILES CCCCCCCCCCCCCC(=O)[O-]
REMARK SMILES IDX 8 1 9 2 10 3 11 4 12 5 13 6 14 7 15 8 16 9 7 10 6 11 5 12
REMARK SMILES IDX 4 13 3 14 2 15 1 16
REMARK H PARENT
REMARK Flexibility Score: inf
ROOT
ATOM      1  C   UNL     1      49.147  -4.735  72.381  1.00  0.00     0.000 C 
ENDROOT
BRANCH   1   2
ATOM      2  C   UNL     1      47.848  -3.983  72.722  1.00  0.00     0.000 C 
BRANCH   2   3
ATOM      3  C   UNL     1      47.571  -3.931  74.235  1.00  0.00     0.000 C 
BRANCH   3   4
ATOM      4  C   UNL     1      48.365  -2.857  75.006  1.00  0.00     0.000 C 
BRANCH   4   5
ATOM      5  C   UNL     1      48.971  -3.323  76.345  1.00  0.00     0.006 C 
BRANCH   5   6
ATOM      6  C   UNL     1      49.961  -4.492  76.219  1.00  0.00     0.053 C 
BRANCH   6   7
ATOM      7  C   UNL     1      49.556  -5.661  77.062  1.00  0.00     0.041 C 
ATOM      8  O   UNL     1      50.176  -5.921  78.126  1.00  0.00    -0.550 OA
ATOM      9  O   UNL     1      48.514  -6.484  76.654  1.00  0.00    -0.550 OA
ENDBRANCH   6   7
ENDBRANCH   5   6
ENDBRANCH   4   5
ENDBRANCH   3   4
ENDBRANCH   2   3
ENDBRANCH   1   2
BRANCH   1  10
ATOM     10  C   UNL     1      50.250  -3.805  71.852  1.00  0.00     0.000 C 
BRANCH  10  11
ATOM     11  C   UNL     1      51.369  -3.576  72.882  1.00  0.00    -0.000 C 
BRANCH  11  12
ATOM     12  C   UNL     1      51.612  -2.084  73.180  1.00  0.00    -0.000 C 
BRANCH  12  13
ATOM     13  C   UNL     1      51.361  -1.131  71.997  1.00  0.00    -0.000 C 
BRANCH  13  14
ATOM     14  C   UNL     1      50.521   0.118  72.327  1.00  0.00    -0.000 C 
BRANCH  14  15
ATOM     15  C   UNL     1      49.060  -0.198  72.708  1.00  0.00    -0.003 C 
ATOM     16  C   UNL     1      48.214  -0.618  71.507  1.00  0.00     0.004 C 
ENDBRANCH  14  15
ENDBRANCH  13  14
ENDBRANCH  12  13
ENDBRANCH  11  12
ENDBRANCH  10  11
ENDBRANCH   1  10
TORSDOF 12
ENDMDL
