MODEL 1
REMARK VINA RESULT:     7.476      0.000      0.000
REMARK INTER + INTRA:           8.832
REMARK INTER:                   9.006
REMARK INTRA:                  -0.175
REMARK UNBOUND:                -0.175
REMARK SMILES O=c1c(O)c(-c2ccc(O)cc2O)oc2cc(O)cc(O)c12
REMARK SMILES IDX 5 1 3 2 2 3 1 4 22 5 20 6 19 7 17 8 16 9 15 10 14 11 6 12
REMARK SMILES IDX 8 13 7 14 9 15 11 16 12 17 10 18 13 20 4 22 21 24 18 26
REMARK H PARENT 10 19 13 21 4 23 21 25 18 27
REMARK Flexibility Score: inf
ROOT
ATOM      1  C   UNL     1     142.019 173.966 174.234  1.00  0.00     0.184 A 
ATOM      2  C   UNL     1     142.031 174.746 175.403  1.00  0.00     0.208 A 
ATOM      3  C   UNL     1     141.838 174.115 176.642  1.00  0.00     0.238 A 
ATOM      4  O   UNL     1     141.844 174.805 177.697  1.00  0.00    -0.285 OA
ATOM      5  C   UNL     1     141.645 172.719 176.689  1.00  0.00     0.111 A 
ATOM      6  C   UNL     1     141.446 172.004 177.894  1.00  0.00     0.134 A 
ATOM      7  C   UNL     1     141.264 170.614 177.858  1.00  0.00     0.093 A 
ATOM      8  C   UNL     1     141.276 169.925 176.643  1.00  0.00     0.123 A 
ATOM      9  C   UNL     1     141.472 170.625 175.448  1.00  0.00     0.094 A 
ATOM     10  C   UNL     1     141.655 172.011 175.463  1.00  0.00     0.146 A 
ATOM     11  O   UNL     1     141.836 172.651 174.314  1.00  0.00    -0.451 OA
ENDROOT
BRANCH   1  12
ATOM     12  C   UNL     1     142.199 174.577 172.901  1.00  0.00     0.063 A 
ATOM     13  C   UNL     1     141.367 174.933 170.641  1.00  0.00     0.047 A 
ATOM     14  C   UNL     1     141.199 174.413 171.926  1.00  0.00     0.020 A 
ATOM     15  C   UNL     1     142.539 175.616 170.307  1.00  0.00     0.119 A 
ATOM     16  C   UNL     1     143.544 175.783 171.268  1.00  0.00     0.093 A 
ATOM     17  C   UNL     1     143.382 175.275 172.564  1.00  0.00     0.130 A 
BRANCH  15  18
ATOM     18  O   UNL     1     142.696 176.125 169.020  1.00  0.00    -0.508 OA
ATOM     19  H   UNL     1     143.529 175.938 168.474  1.00  0.00     0.293 HD
ENDBRANCH  15  18
BRANCH  17  20
ATOM     20  O   UNL     1     144.400 175.502 173.493  1.00  0.00    -0.507 OA
ATOM     21  H   UNL     1     144.510 174.953 174.335  1.00  0.00     0.293 HD
ENDBRANCH  17  20
ENDBRANCH   1  12
BRANCH   2  22
ATOM     22  O   UNL     1     142.249 176.124 175.324  1.00  0.00    -0.502 OA
ATOM     23  H   UNL     1     141.757 176.712 174.662  1.00  0.00     0.293 HD
ENDBRANCH   2  22
BRANCH   6  24
ATOM     24  O   UNL     1     141.428 172.663 179.125  1.00  0.00    -0.507 OA
ATOM     25  H   UNL     1     140.561 172.959 179.559  1.00  0.00     0.293 HD
ENDBRANCH   6  24
BRANCH   8  26
ATOM     26  O   UNL     1     141.094 168.544 176.635  1.00  0.00    -0.508 OA
ATOM     27  H   UNL     1     140.192 168.130 176.426  1.00  0.00     0.293 HD
ENDBRANCH   8  26
TORSDOF 6
ENDMDL
