MODEL 1
REMARK VINA RESULT:     2.450      0.000      0.000
REMARK INTER + INTRA:           3.626
REMARK INTER:                   4.456
REMARK INTRA:                  -0.830
REMARK UNBOUND:                -0.830
REMARK SMILES CCCCCCCCCCCCCCCC(=O)[O-]
REMARK SMILES IDX 9 1 10 2 11 3 12 4 13 5 14 6 15 7 16 8 17 9 18 10 8 11 7 12
REMARK SMILES IDX 6 13 5 14 4 15 3 16 2 17 1 18
REMARK H PARENT
REMARK Flexibility Score: inf
ROOT
ATOM      1  C   UNL     1      22.073  22.511  46.051  1.00  0.00     0.000 C 
ENDROOT
BRANCH   1   2
ATOM      2  C   UNL     1      21.223  21.853  47.145  1.00  0.00     0.000 C 
BRANCH   2   3
ATOM      3  C   UNL     1      19.774  22.358  47.093  1.00  0.00     0.000 C 
BRANCH   3   4
ATOM      4  C   UNL     1      19.528  23.550  48.030  1.00  0.00     0.000 C 
BRANCH   4   5
ATOM      5  C   UNL     1      18.047  23.953  48.102  1.00  0.00     0.000 C 
BRANCH   5   6
ATOM      6  C   UNL     1      17.730  25.062  47.093  1.00  0.00     0.006 C 
BRANCH   6   7
ATOM      7  C   UNL     1      17.071  24.490  45.835  1.00  0.00     0.053 C 
BRANCH   7   8
ATOM      8  C   UNL     1      17.902  24.788  44.625  1.00  0.00     0.041 C 
ATOM      9  O   UNL     1      17.365  24.851  43.489  1.00  0.00    -0.550 OA
ATOM     10  O   UNL     1      19.276  24.946  44.748  1.00  0.00    -0.550 OA
ENDBRANCH   7   8
ENDBRANCH   6   7
ENDBRANCH   5   6
ENDBRANCH   4   5
ENDBRANCH   3   4
ENDBRANCH   2   3
ENDBRANCH   1   2
BRANCH   1  11
ATOM     11  C   UNL     1      23.402  23.026  46.619  1.00  0.00     0.000 C 
BRANCH  11  12
ATOM     12  C   UNL     1      24.533  22.877  45.592  1.00  0.00    -0.000 C 
BRANCH  12  13
ATOM     13  C   UNL     1      25.907  23.295  46.145  1.00  0.00    -0.000 C 
BRANCH  13  14
ATOM     14  C   UNL     1      26.586  24.475  45.416  1.00  0.00    -0.000 C 
BRANCH  14  15
ATOM     15  C   UNL     1      28.064  24.711  45.788  1.00  0.00    -0.000 C 
BRANCH  15  16
ATOM     16  C   UNL     1      28.787  23.449  46.309  1.00  0.00    -0.000 C 
BRANCH  16  17
ATOM     17  C   UNL     1      29.669  22.766  45.251  1.00  0.00    -0.003 C 
ATOM     18  C   UNL     1      29.273  21.313  44.997  1.00  0.00     0.004 C 
ENDBRANCH  16  17
ENDBRANCH  15  16
ENDBRANCH  14  15
ENDBRANCH  13  14
ENDBRANCH  12  13
ENDBRANCH  11  12
ENDBRANCH   1  11
TORSDOF 14
ENDMDL
MODEL 2
REMARK VINA RESULT:     2.942     14.258     17.814
REMARK INTER + INTRA:           4.521
REMARK INTER:                   4.941
REMARK INTRA:                  -0.420
REMARK UNBOUND:                -0.830
REMARK SMILES CCCCCCCCCCCCCCCC(=O)[O-]
REMARK SMILES IDX 9 1 10 2 11 3 12 4 13 5 14 6 15 7 16 8 17 9 18 10 8 11 7 12
REMARK SMILES IDX 6 13 5 14 4 15 3 16 2 17 1 18
REMARK H PARENT
REMARK Flexibility Score: inf
ROOT
ATOM      1  C   UNL     1      30.827  24.674  32.959  1.00  0.00     0.000 C 
ENDROOT
BRANCH   1   2
ATOM      2  C   UNL     1      30.633  25.073  31.491  1.00  0.00     0.000 C 
BRANCH   2   3
ATOM      3  C   UNL     1      30.430  23.835  30.607  1.00  0.00     0.000 C 
BRANCH   3   4
ATOM      4  C   UNL     1      30.552  24.150  29.108  1.00  0.00     0.000 C 
BRANCH   4   5
ATOM      5  C   UNL     1      31.928  23.779  28.534  1.00  0.00     0.000 C 
BRANCH   5   6
ATOM      6  C   UNL     1      32.668  25.025  28.033  1.00  0.00     0.006 C 
BRANCH   6   7
ATOM      7  C   UNL     1      34.178  24.777  27.966  1.00  0.00     0.053 C 
BRANCH   7   8
ATOM      8  C   UNL     1      34.713  24.423  29.319  1.00  0.00     0.041 C 
ATOM      9  O   UNL     1      34.097  24.781  30.356  1.00  0.00    -0.550 OA
ATOM     10  O   UNL     1      35.918  23.742  29.433  1.00  0.00    -0.550 OA
ENDBRANCH   7   8
ENDBRANCH   6   7
ENDBRANCH   5   6
ENDBRANCH   4   5
ENDBRANCH   3   4
ENDBRANCH   2   3
ENDBRANCH   1   2
BRANCH   1  11
ATOM     11  C   UNL     1      32.285  24.863  33.395  1.00  0.00     0.000 C 
BRANCH  11  12
ATOM     12  C   UNL     1      32.379  25.125  34.904  1.00  0.00    -0.000 C 
BRANCH  12  13
ATOM     13  C   UNL     1      31.491  24.182  35.736  1.00  0.00    -0.000 C 
BRANCH  13  14
ATOM     14  C   UNL     1      32.212  23.414  36.865  1.00  0.00    -0.000 C 
BRANCH  14  15
ATOM     15  C   UNL     1      31.324  22.442  37.667  1.00  0.00    -0.000 C 
BRANCH  15  16
ATOM     16  C   UNL     1      31.828  20.981  37.654  1.00  0.00    -0.000 C 
BRANCH  16  17
ATOM     17  C   UNL     1      30.695  19.941  37.668  1.00  0.00    -0.003 C 
ATOM     18  C   UNL     1      31.196  18.516  37.438  1.00  0.00     0.004 C 
ENDBRANCH  16  17
ENDBRANCH  15  16
ENDBRANCH  14  15
ENDBRANCH  13  14
ENDBRANCH  12  13
ENDBRANCH  11  12
ENDBRANCH   1  11
TORSDOF 14
ENDMDL
MODEL 3
REMARK VINA RESULT:     2.970      3.559      8.349
REMARK INTER + INTRA:           4.570
REMARK INTER:                   5.506
REMARK INTRA:                  -0.936
REMARK UNBOUND:                -0.830
REMARK SMILES CCCCCCCCCCCCCCCC(=O)[O-]
REMARK SMILES IDX 9 1 10 2 11 3 12 4 13 5 14 6 15 7 16 8 17 9 18 10 8 11 7 12
REMARK SMILES IDX 6 13 5 14 4 15 3 16 2 17 1 18
REMARK H PARENT
REMARK Flexibility Score: inf
ROOT
ATOM      1  C   UNL     1      20.521  23.717  44.921  1.00  0.00     0.000 C 
ENDROOT
BRANCH   1   2
ATOM      2  C   UNL     1      22.044  23.718  45.098  1.00  0.00     0.000 C 
BRANCH   2   3
ATOM      3  C   UNL     1      22.517  22.439  45.804  1.00  0.00     0.000 C 
BRANCH   3   4
ATOM      4  C   UNL     1      23.817  22.645  46.597  1.00  0.00     0.000 C 
BRANCH   4   5
ATOM      5  C   UNL     1      24.886  23.405  45.796  1.00  0.00     0.000 C 
BRANCH   5   6
ATOM      6  C   UNL     1      26.252  23.323  46.487  1.00  0.00     0.006 C 
BRANCH   6   7
ATOM      7  C   UNL     1      27.088  24.573  46.203  1.00  0.00     0.053 C 
BRANCH   7   8
ATOM      8  C   UNL     1      28.218  24.250  45.277  1.00  0.00     0.041 C 
ATOM      9  O   UNL     1      28.320  24.842  44.171  1.00  0.00    -0.550 OA
ATOM     10  O   UNL     1      29.131  23.259  45.615  1.00  0.00    -0.550 OA
ENDBRANCH   7   8
ENDBRANCH   6   7
ENDBRANCH   5   6
ENDBRANCH   4   5
ENDBRANCH   3   4
ENDBRANCH   2   3
ENDBRANCH   1   2
BRANCH   1  11
ATOM     11  C   UNL     1      20.021  25.080  44.426  1.00  0.00     0.000 C 
BRANCH  11  12
ATOM     12  C   UNL     1      18.775  24.921  43.544  1.00  0.00    -0.000 C 
BRANCH  12  13
ATOM     13  C   UNL     1      17.502  24.609  44.350  1.00  0.00    -0.000 C 
BRANCH  13  14
ATOM     14  C   UNL     1      17.493  25.125  45.805  1.00  0.00    -0.000 C 
BRANCH  14  15
ATOM     15  C   UNL     1      17.534  24.029  46.890  1.00  0.00    -0.000 C 
BRANCH  15  16
ATOM     16  C   UNL     1      18.385  24.404  48.125  1.00  0.00    -0.000 C 
BRANCH  16  17
ATOM     17  C   UNL     1      19.790  23.780  48.115  1.00  0.00    -0.003 C 
ATOM     18  C   UNL     1      19.760  22.254  48.071  1.00  0.00     0.004 C 
ENDBRANCH  16  17
ENDBRANCH  15  16
ENDBRANCH  14  15
ENDBRANCH  13  14
ENDBRANCH  12  13
ENDBRANCH  11  12
ENDBRANCH   1  11
TORSDOF 14
ENDMDL
MODEL 4
REMARK VINA RESULT:     5.192      1.319      2.478
REMARK INTER + INTRA:           8.612
REMARK INTER:                   9.161
REMARK INTRA:                  -0.549
REMARK UNBOUND:                -0.830
REMARK SMILES CCCCCCCCCCCCCCCC(=O)[O-]
REMARK SMILES IDX 9 1 10 2 11 3 12 4 13 5 14 6 15 7 16 8 17 9 18 10 8 11 7 12
REMARK SMILES IDX 6 13 5 14 4 15 3 16 2 17 1 18
REMARK H PARENT
REMARK Flexibility Score: inf
ROOT
ATOM      1  C   UNL     1      20.258  22.362  47.178  1.00  0.00     0.000 C 
ENDROOT
BRANCH   1   2
ATOM      2  C   UNL     1      19.116  21.889  48.086  1.00  0.00     0.000 C 
BRANCH   2   3
ATOM      3  C   UNL     1      17.948  22.886  48.065  1.00  0.00     0.000 C 
BRANCH   3   4
ATOM      4  C   UNL     1      18.418  24.348  48.010  1.00  0.00     0.000 C 
BRANCH   4   5
ATOM      5  C   UNL     1      17.808  25.123  46.832  1.00  0.00     0.000 C 
BRANCH   5   6
ATOM      6  C   UNL     1      18.755  25.124  45.626  1.00  0.00     0.006 C 
BRANCH   6   7
ATOM      7  C   UNL     1      18.316  24.095  44.581  1.00  0.00     0.053 C 
BRANCH   7   8
ATOM      8  C   UNL     1      18.264  24.717  43.221  1.00  0.00     0.041 C 
ATOM      9  O   UNL     1      19.329  24.967  42.599  1.00  0.00    -0.550 OA
ATOM     10  O   UNL     1      17.041  25.065  42.663  1.00  0.00    -0.550 OA
ENDBRANCH   7   8
ENDBRANCH   6   7
ENDBRANCH   5   6
ENDBRANCH   4   5
ENDBRANCH   3   4
ENDBRANCH   2   3
ENDBRANCH   1   2
BRANCH   1  11
ATOM     11  C   UNL     1      21.202  23.310  47.929  1.00  0.00     0.000 C 
BRANCH  11  12
ATOM     12  C   UNL     1      22.606  23.294  47.307  1.00  0.00    -0.000 C 
BRANCH  12  13
ATOM     13  C   UNL     1      22.740  22.291  46.147  1.00  0.00    -0.000 C 
BRANCH  13  14
ATOM     14  C   UNL     1      24.089  22.319  45.397  1.00  0.00    -0.000 C 
BRANCH  14  15
ATOM     15  C   UNL     1      24.987  23.533  45.708  1.00  0.00    -0.000 C 
BRANCH  15  16
ATOM     16  C   UNL     1      26.369  23.156  46.288  1.00  0.00    -0.000 C 
BRANCH  16  17
ATOM     17  C   UNL     1      27.539  23.895  45.618  1.00  0.00    -0.003 C 
ATOM     18  C   UNL     1      28.731  24.089  46.554  1.00  0.00     0.004 C 
ENDBRANCH  16  17
ENDBRANCH  15  16
ENDBRANCH  14  15
ENDBRANCH  13  14
ENDBRANCH  12  13
ENDBRANCH  11  12
ENDBRANCH   1  11
TORSDOF 14
ENDMDL
