MODEL 1
REMARK VINA RESULT:    -3.774      0.000      0.000
REMARK INTER + INTRA:          -6.229
REMARK INTER:                  -5.538
REMARK INTRA:                  -0.691
REMARK UNBOUND:                -0.691
REMARK SMILES O=c1c(O[C@@H]2O[C@H](CO)[C@@H](O)[C@H](O)[C@H]2O)c(-c2ccc(O)c(O)c2)oc2cc(O)cc(O)c12
REMARK SMILES IDX 4 1 3 2 16 3 25 4 2 5 26 6 1 7 33 8 27 9 31 10 28 11 30 12
REMARK SMILES IDX 17 13 18 14 19 15 20 16 24 17 22 18 21 19 23 21 32 23 29 25
REMARK SMILES IDX 5 27 14 28 6 29 12 30 7 31 10 32 15 33 13 35 8 37 9 38 11 40
REMARK H PARENT 21 20 23 22 32 24 29 26 15 34 13 36 9 39 11 41
REMARK Flexibility Score: inf
ROOT
ATOM      1  O   UNL     1      10.395  14.553  -1.244  1.00  0.00    -0.454 OA
ENDROOT
BRANCH   1   2
ATOM      2  C   UNL     1      11.105  13.370  -1.482  1.00  0.00     0.214 A 
ATOM      3  C   UNL     1      12.495  13.373  -1.729  1.00  0.00     0.180 A 
ATOM      4  O   UNL     1      13.113  12.235  -2.034  1.00  0.00    -0.452 OA
ATOM      5  C   UNL     1      10.422  12.148  -1.482  1.00  0.00     0.239 A 
ATOM      6  C   UNL     1      12.496  11.060  -2.080  1.00  0.00     0.146 A 
ATOM      7  O   UNL     1       9.190  12.133  -1.218  1.00  0.00    -0.285 OA
ATOM      8  C   UNL     1      11.115  10.960  -1.790  1.00  0.00     0.111 A 
ATOM      9  C   UNL     1      13.231   9.917  -2.410  1.00  0.00     0.094 A 
ATOM     10  C   UNL     1      10.492   9.690  -1.833  1.00  0.00     0.134 A 
ATOM     11  C   UNL     1      12.609   8.666  -2.452  1.00  0.00     0.123 A 
ATOM     12  C   UNL     1      11.247   8.556  -2.164  1.00  0.00     0.093 A 
BRANCH   3  13
ATOM     13  C   UNL     1      13.309  14.606  -1.648  1.00  0.00     0.025 A 
ATOM     14  C   UNL     1      14.164  14.981  -2.696  1.00  0.00     0.016 A 
ATOM     15  C   UNL     1      14.922  16.149  -2.604  1.00  0.00     0.051 A 
ATOM     16  C   UNL     1      14.830  16.972  -1.477  1.00  0.00     0.157 A 
ATOM     17  C   UNL     1      13.196  15.441  -0.527  1.00  0.00     0.062 A 
ATOM     18  C   UNL     1      13.951  16.616  -0.426  1.00  0.00     0.158 A 
BRANCH  16  19
ATOM     19  O   UNL     1      15.618  18.124  -1.444  1.00  0.00    -0.504 OA
ATOM     20  H   UNL     1      15.648  18.766  -0.664  1.00  0.00     0.293 HD
ENDBRANCH  16  19
BRANCH  18  21
ATOM     21  O   UNL     1      13.797  17.393   0.724  1.00  0.00    -0.504 OA
ATOM     22  H   UNL     1      13.456  17.037   1.604  1.00  0.00     0.293 HD
ENDBRANCH  18  21
ENDBRANCH   3  13
BRANCH  10  23
ATOM     23  O   UNL     1       9.132   9.548  -1.553  1.00  0.00    -0.507 OA
ATOM     24  H   UNL     1       8.730   9.876  -0.682  1.00  0.00     0.293 HD
ENDBRANCH  10  23
BRANCH  11  25
ATOM     25  O   UNL     1      13.336   7.523  -2.779  1.00  0.00    -0.508 OA
ATOM     26  H   UNL     1      12.877   6.644  -2.984  1.00  0.00     0.293 HD
ENDBRANCH  11  25
ENDBRANCH   1   2
BRANCH   1  27
ATOM     27  C   UNL     1       9.017  14.716  -1.590  1.00  0.00     0.339 C 
ATOM     28  C   UNL     1       8.258  15.502  -0.507  1.00  0.00     0.214 C 
ATOM     29  O   UNL     1       8.879  15.286  -2.884  1.00  0.00    -0.332 OA
ATOM     30  C   UNL     1       8.657  16.988  -0.509  1.00  0.00     0.180 C 
ATOM     31  C   UNL     1       9.312  16.638  -2.978  1.00  0.00     0.179 C 
ATOM     32  C   UNL     1       8.637  17.573  -1.937  1.00  0.00     0.177 C 
BRANCH  28  33
ATOM     33  O   UNL     1       6.877  15.362  -0.718  1.00  0.00    -0.384 OA
ATOM     34  H   UNL     1       6.758  14.640  -1.390  1.00  0.00     0.211 HD
ENDBRANCH  28  33
BRANCH  30  35
ATOM     35  O   UNL     1       9.933  17.128   0.059  1.00  0.00    -0.387 OA
ATOM     36  H   UNL     1      10.237  18.053  -0.133  1.00  0.00     0.211 HD
ENDBRANCH  30  35
BRANCH  31  37
ATOM     37  C   UNL     1      10.849  16.766  -3.028  1.00  0.00     0.191 C 
BRANCH  37  38
ATOM     38  O   UNL     1      11.245  17.972  -2.432  1.00  0.00    -0.394 OA
ATOM     39  H   UNL     1      11.716  17.725  -1.595  1.00  0.00     0.210 HD
ENDBRANCH  37  38
ENDBRANCH  31  37
BRANCH  32  40
ATOM     40  O   UNL     1       7.319  17.887  -2.319  1.00  0.00    -0.387 OA
ATOM     41  H   UNL     1       7.309  18.059  -3.295  1.00  0.00     0.211 HD
ENDBRANCH  32  40
ENDBRANCH   1  27
TORSDOF 12
ENDMDL
MODEL 2
REMARK VINA RESULT:    -3.404      1.402      4.934
REMARK INTER + INTRA:          -5.687
REMARK INTER:                  -5.023
REMARK INTRA:                  -0.664
REMARK UNBOUND:                -0.691
REMARK SMILES O=c1c(O[C@@H]2O[C@H](CO)[C@@H](O)[C@H](O)[C@H]2O)c(-c2ccc(O)c(O)c2)oc2cc(O)cc(O)c12
REMARK SMILES IDX 4 1 3 2 16 3 25 4 2 5 26 6 1 7 33 8 27 9 31 10 28 11 30 12
REMARK SMILES IDX 17 13 18 14 19 15 20 16 24 17 22 18 21 19 23 21 32 23 29 25
REMARK SMILES IDX 5 27 14 28 6 29 12 30 7 31 10 32 15 33 13 35 8 37 9 38 11 40
REMARK H PARENT 21 20 23 22 32 24 29 26 15 34 13 36 9 39 11 41
REMARK Flexibility Score: inf
ROOT
ATOM      1  O   UNL     1      12.863  14.655  -2.479  1.00  0.00    -0.454 OA
ENDROOT
BRANCH   1   2
ATOM      2  C   UNL     1      12.326  13.363  -2.399  1.00  0.00     0.214 A 
ATOM      3  C   UNL     1      10.958  13.142  -2.133  1.00  0.00     0.180 A 
ATOM      4  O   UNL     1      10.508  11.899  -1.982  1.00  0.00    -0.452 OA
ATOM      5  C   UNL     1      13.166  12.259  -2.581  1.00  0.00     0.239 A 
ATOM      6  C   UNL     1      11.278  10.825  -2.111  1.00  0.00     0.146 A 
ATOM      7  O   UNL     1      14.380  12.450  -2.863  1.00  0.00    -0.285 OA
ATOM      8  C   UNL     1      12.650  10.956  -2.432  1.00  0.00     0.111 A 
ATOM      9  C   UNL     1      10.714   9.558  -1.934  1.00  0.00     0.094 A 
ATOM     10  C   UNL     1      13.438   9.790  -2.578  1.00  0.00     0.134 A 
ATOM     11  C   UNL     1      11.499   8.410  -2.076  1.00  0.00     0.123 A 
ATOM     12  C   UNL     1      12.853   8.528  -2.398  1.00  0.00     0.093 A 
BRANCH   3  13
ATOM     13  C   UNL     1       9.984  14.251  -2.028  1.00  0.00     0.025 A 
ATOM     14  C   UNL     1       9.919  15.255  -3.006  1.00  0.00     0.016 A 
ATOM     15  C   UNL     1       8.992  16.292  -2.892  1.00  0.00     0.051 A 
ATOM     16  C   UNL     1       8.103  16.339  -1.813  1.00  0.00     0.157 A 
ATOM     17  C   UNL     1       9.078  14.282  -0.957  1.00  0.00     0.062 A 
ATOM     18  C   UNL     1       8.143  15.317  -0.834  1.00  0.00     0.158 A 
BRANCH  16  19
ATOM     19  O   UNL     1       7.203  17.405  -1.755  1.00  0.00    -0.504 OA
ATOM     20  H   UNL     1       6.338  17.443  -2.274  1.00  0.00     0.293 HD
ENDBRANCH  16  19
BRANCH  18  21
ATOM     21  O   UNL     1       7.280  15.290   0.263  1.00  0.00    -0.504 OA
ATOM     22  H   UNL     1       7.034  16.104   0.807  1.00  0.00     0.293 HD
ENDBRANCH  18  21
ENDBRANCH   3  13
BRANCH  10  23
ATOM     23  O   UNL     1      14.794   9.875  -2.896  1.00  0.00    -0.507 OA
ATOM     24  H   UNL     1      15.339   9.054  -3.134  1.00  0.00     0.293 HD
ENDBRANCH  10  23
BRANCH  11  25
ATOM     25  O   UNL     1      10.943   7.144  -1.903  1.00  0.00    -0.508 OA
ATOM     26  H   UNL     1       9.941   7.010  -1.834  1.00  0.00     0.293 HD
ENDBRANCH  11  25
ENDBRANCH   1   2
BRANCH   1  27
ATOM     27  C   UNL     1      14.219  14.956  -2.137  1.00  0.00     0.339 C 
ATOM     28  C   UNL     1      14.777  16.091  -3.013  1.00  0.00     0.214 C 
ATOM     29  O   UNL     1      14.348  15.216  -0.746  1.00  0.00    -0.332 OA
ATOM     30  C   UNL     1      14.155  17.446  -2.637  1.00  0.00     0.180 C 
ATOM     31  C   UNL     1      13.718  16.417  -0.314  1.00  0.00     0.179 C 
ATOM     32  C   UNL     1      14.174  17.671  -1.111  1.00  0.00     0.177 C 
BRANCH  28  33
ATOM     33  O   UNL     1      16.174  16.135  -2.875  1.00  0.00    -0.384 OA
ATOM     34  H   UNL     1      16.521  15.251  -3.165  1.00  0.00     0.211 HD
ENDBRANCH  28  33
BRANCH  30  35
ATOM     35  O   UNL     1      12.839  17.505  -3.124  1.00  0.00    -0.387 OA
ATOM     36  H   UNL     1      12.310  16.836  -2.615  1.00  0.00     0.211 HD
ENDBRANCH  30  35
BRANCH  31  37
ATOM     37  C   UNL     1      12.187  16.274  -0.198  1.00  0.00     0.191 C 
BRANCH  37  38
ATOM     38  O   UNL     1      11.572  17.502  -0.481  1.00  0.00    -0.394 OA
ATOM     39  H   UNL     1      11.960  17.815  -1.339  1.00  0.00     0.210 HD
ENDBRANCH  37  38
ENDBRANCH  31  37
BRANCH  32  40
ATOM     40  O   UNL     1      15.450  18.098  -0.695  1.00  0.00    -0.387 OA
ATOM     41  H   UNL     1      15.600  17.778   0.231  1.00  0.00     0.211 HD
ENDBRANCH  32  40
ENDBRANCH   1  27
TORSDOF 12
ENDMDL
MODEL 3
REMARK VINA RESULT:    -3.233      1.812      2.638
REMARK INTER + INTRA:          -5.435
REMARK INTER:                  -5.476
REMARK INTRA:                   0.041
REMARK UNBOUND:                -0.691
REMARK SMILES O=c1c(O[C@@H]2O[C@H](CO)[C@@H](O)[C@H](O)[C@H]2O)c(-c2ccc(O)c(O)c2)oc2cc(O)cc(O)c12
REMARK SMILES IDX 4 1 3 2 16 3 25 4 2 5 26 6 1 7 33 8 27 9 31 10 28 11 30 12
REMARK SMILES IDX 17 13 18 14 19 15 20 16 24 17 22 18 21 19 23 21 32 23 29 25
REMARK SMILES IDX 5 27 14 28 6 29 12 30 7 31 10 32 15 33 13 35 8 37 9 38 11 40
REMARK H PARENT 21 20 23 22 32 24 29 26 15 34 13 36 9 39 11 41
REMARK Flexibility Score: inf
ROOT
ATOM      1  O   UNL     1      10.970  12.591  -1.807  1.00  0.00    -0.454 OA
ENDROOT
BRANCH   1   2
ATOM      2  C   UNL     1      11.575  11.348  -2.033  1.00  0.00     0.214 A 
ATOM      3  C   UNL     1      12.908  11.240  -2.483  1.00  0.00     0.180 A 
ATOM      4  O   UNL     1      13.414  10.043  -2.765  1.00  0.00    -0.452 OA
ATOM      5  C   UNL     1      10.839  10.178  -1.814  1.00  0.00     0.239 A 
ATOM      6  C   UNL     1      12.739   8.910  -2.606  1.00  0.00     0.146 A 
ATOM      7  O   UNL     1       9.662  10.266  -1.370  1.00  0.00    -0.285 OA
ATOM      8  C   UNL     1      11.415   8.925  -2.107  1.00  0.00     0.111 A 
ATOM      9  C   UNL     1      13.356   7.698  -2.930  1.00  0.00     0.094 A 
ATOM     10  C   UNL     1      10.729   7.699  -1.934  1.00  0.00     0.134 A 
ATOM     11  C   UNL     1      12.672   6.491  -2.760  1.00  0.00     0.123 A 
ATOM     12  C   UNL     1      11.367   6.494  -2.263  1.00  0.00     0.093 A 
BRANCH   3  13
ATOM     13  C   UNL     1      13.786  12.421  -2.642  1.00  0.00     0.025 A 
ATOM     14  C   UNL     1      15.179  12.281  -2.741  1.00  0.00     0.016 A 
ATOM     15  C   UNL     1      15.991  13.405  -2.894  1.00  0.00     0.051 A 
ATOM     16  C   UNL     1      15.431  14.685  -2.968  1.00  0.00     0.157 A 
ATOM     17  C   UNL     1      13.219  13.700  -2.740  1.00  0.00     0.062 A 
ATOM     18  C   UNL     1      14.026  14.835  -2.896  1.00  0.00     0.158 A 
BRANCH  16  19
ATOM     19  O   UNL     1      16.299  15.770  -3.117  1.00  0.00    -0.504 OA
ATOM     20  H   UNL     1      16.745  16.245  -2.346  1.00  0.00     0.293 HD
ENDBRANCH  16  19
BRANCH  18  21
ATOM     21  O   UNL     1      13.394  16.078  -2.974  1.00  0.00    -0.504 OA
ATOM     22  H   UNL     1      13.739  16.852  -3.523  1.00  0.00     0.293 HD
ENDBRANCH  18  21
ENDBRANCH   3  13
BRANCH  10  23
ATOM     23  O   UNL     1       9.423   7.670  -1.443  1.00  0.00    -0.507 OA
ATOM     24  H   UNL     1       8.925   8.519  -1.202  1.00  0.00     0.293 HD
ENDBRANCH  10  23
BRANCH  11  25
ATOM     25  O   UNL     1      13.282   5.279  -3.079  1.00  0.00    -0.508 OA
ATOM     26  H   UNL     1      13.911   4.817  -2.434  1.00  0.00     0.293 HD
ENDBRANCH  11  25
ENDBRANCH   1   2
BRANCH   1  27
ATOM     27  C   UNL     1       9.925  13.110  -2.635  1.00  0.00     0.339 C 
ATOM     28  C   UNL     1       8.540  12.684  -2.117  1.00  0.00     0.214 C 
ATOM     29  O   UNL     1      10.047  14.517  -2.792  1.00  0.00    -0.332 OA
ATOM     30  C   UNL     1       8.174  13.426  -0.820  1.00  0.00     0.180 C 
ATOM     31  C   UNL     1       9.806  15.261  -1.604  1.00  0.00     0.179 C 
ATOM     32  C   UNL     1       8.435  14.941  -0.945  1.00  0.00     0.177 C 
BRANCH  28  33
ATOM     33  O   UNL     1       7.580  12.930  -3.113  1.00  0.00    -0.384 OA
ATOM     34  H   UNL     1       8.021  12.765  -3.987  1.00  0.00     0.211 HD
ENDBRANCH  28  33
BRANCH  30  35
ATOM     35  O   UNL     1       8.912  12.889   0.247  1.00  0.00    -0.387 OA
ATOM     36  H   UNL     1       9.829  12.714  -0.093  1.00  0.00     0.211 HD
ENDBRANCH  30  35
BRANCH  31  37
ATOM     37  C   UNL     1      10.995  15.214  -0.622  1.00  0.00     0.191 C 
BRANCH  37  38
ATOM     38  O   UNL     1      11.684  16.434  -0.650  1.00  0.00    -0.394 OA
ATOM     39  H   UNL     1      11.264  16.973  -1.370  1.00  0.00     0.210 HD
ENDBRANCH  37  38
ENDBRANCH  31  37
BRANCH  32  40
ATOM     40  O   UNL     1       7.381  15.563  -1.643  1.00  0.00    -0.387 OA
ATOM     41  H   UNL     1       6.669  14.891  -1.797  1.00  0.00     0.211 HD
ENDBRANCH  32  40
ENDBRANCH   1  27
TORSDOF 12
ENDMDL
MODEL 4
REMARK VINA RESULT:    -2.971      1.327      2.044
REMARK INTER + INTRA:          -5.052
REMARK INTER:                  -4.679
REMARK INTRA:                  -0.373
REMARK UNBOUND:                -0.691
REMARK SMILES O=c1c(O[C@@H]2O[C@H](CO)[C@@H](O)[C@H](O)[C@H]2O)c(-c2ccc(O)c(O)c2)oc2cc(O)cc(O)c12
REMARK SMILES IDX 4 1 3 2 16 3 25 4 2 5 26 6 1 7 33 8 27 9 31 10 28 11 30 12
REMARK SMILES IDX 17 13 18 14 19 15 20 16 24 17 22 18 21 19 23 21 32 23 29 25
REMARK SMILES IDX 5 27 14 28 6 29 12 30 7 31 10 32 15 33 13 35 8 37 9 38 11 40
REMARK H PARENT 21 20 23 22 32 24 29 26 15 34 13 36 9 39 11 41
REMARK Flexibility Score: inf
ROOT
ATOM      1  O   UNL     1      10.708  14.670  -2.138  1.00  0.00    -0.454 OA
ENDROOT
BRANCH   1   2
ATOM      2  C   UNL     1      11.346  13.424  -2.195  1.00  0.00     0.214 A 
ATOM      3  C   UNL     1      12.726  13.307  -2.470  1.00  0.00     0.180 A 
ATOM      4  O   UNL     1      13.273  12.101  -2.599  1.00  0.00    -0.452 OA
ATOM      5  C   UNL     1      10.599  12.261  -1.980  1.00  0.00     0.239 A 
ATOM      6  C   UNL     1      12.593  10.972  -2.438  1.00  0.00     0.146 A 
ATOM      7  O   UNL     1       9.377  12.360  -1.690  1.00  0.00    -0.285 OA
ATOM      8  C   UNL     1      11.217  11.000  -2.106  1.00  0.00     0.111 A 
ATOM      9  C   UNL     1      13.255   9.750  -2.593  1.00  0.00     0.094 A 
ATOM     10  C   UNL     1      10.527   9.778  -1.927  1.00  0.00     0.134 A 
ATOM     11  C   UNL     1      12.566   8.547  -2.417  1.00  0.00     0.123 A 
ATOM     12  C   UNL     1      11.210   8.563  -2.085  1.00  0.00     0.093 A 
BRANCH   3  13
ATOM     13  C   UNL     1      13.607  14.488  -2.610  1.00  0.00     0.025 A 
ATOM     14  C   UNL     1      15.004  14.356  -2.596  1.00  0.00     0.016 A 
ATOM     15  C   UNL     1      15.819  15.481  -2.732  1.00  0.00     0.051 A 
ATOM     16  C   UNL     1      15.259  16.752  -2.901  1.00  0.00     0.157 A 
ATOM     17  C   UNL     1      13.042  15.757  -2.803  1.00  0.00     0.062 A 
ATOM     18  C   UNL     1      13.851  16.892  -2.942  1.00  0.00     0.158 A 
BRANCH  16  19
ATOM     19  O   UNL     1      16.129  17.837  -3.026  1.00  0.00    -0.504 OA
ATOM     20  H   UNL     1      15.826  18.796  -3.123  1.00  0.00     0.293 HD
ENDBRANCH  16  19
BRANCH  18  21
ATOM     21  O   UNL     1      13.221  18.125  -3.119  1.00  0.00    -0.504 OA
ATOM     22  H   UNL     1      12.919  18.719  -2.361  1.00  0.00     0.293 HD
ENDBRANCH  18  21
ENDBRANCH   3  13
BRANCH  10  23
ATOM     23  O   UNL     1       9.171   9.762  -1.597  1.00  0.00    -0.507 OA
ATOM     24  H   UNL     1       8.569   8.988  -1.855  1.00  0.00     0.293 HD
ENDBRANCH  10  23
BRANCH  11  25
ATOM     25  O   UNL     1      13.221   7.326  -2.569  1.00  0.00    -0.508 OA
ATOM     26  H   UNL     1      14.215   7.234  -2.399  1.00  0.00     0.293 HD
ENDBRANCH  11  25
ENDBRANCH   1   2
BRANCH   1  27
ATOM     27  C   UNL     1      10.292  15.275  -0.910  1.00  0.00     0.339 C 
ATOM     28  C   UNL     1      10.711  16.754  -0.846  1.00  0.00     0.214 C 
ATOM     29  O   UNL     1       8.901  15.085  -0.693  1.00  0.00    -0.332 OA
ATOM     30  C   UNL     1       9.873  17.616  -1.805  1.00  0.00     0.180 C 
ATOM     31  C   UNL     1       8.065  15.789  -1.604  1.00  0.00     0.179 C 
ATOM     32  C   UNL     1       8.367  17.313  -1.664  1.00  0.00     0.177 C 
BRANCH  28  33
ATOM     33  O   UNL     1      10.578  17.214   0.474  1.00  0.00    -0.384 OA
ATOM     34  H   UNL     1      11.452  17.065   0.922  1.00  0.00     0.211 HD
ENDBRANCH  28  33
BRANCH  30  35
ATOM     35  O   UNL     1      10.296  17.389  -3.125  1.00  0.00    -0.387 OA
ATOM     36  H   UNL     1      10.458  16.414  -3.215  1.00  0.00     0.211 HD
ENDBRANCH  30  35
BRANCH  31  37
ATOM     37  C   UNL     1       7.995  15.113  -2.988  1.00  0.00     0.191 C 
BRANCH  37  38
ATOM     38  O   UNL     1       7.280  13.910  -2.895  1.00  0.00    -0.394 OA
ATOM     39  H   UNL     1       6.531  14.081  -2.267  1.00  0.00     0.210 HD
ENDBRANCH  37  38
ENDBRANCH  31  37
BRANCH  32  40
ATOM     40  O   UNL     1       7.837  17.977  -0.542  1.00  0.00    -0.387 OA
ATOM     41  H   UNL     1       8.441  17.820   0.229  1.00  0.00     0.211 HD
ENDBRANCH  32  40
ENDBRANCH   1  27
TORSDOF 12
ENDMDL
MODEL 5
REMARK VINA RESULT:    -2.491      2.247      3.867
REMARK INTER + INTRA:          -4.347
REMARK INTER:                  -5.938
REMARK INTRA:                   1.591
REMARK UNBOUND:                -0.691
REMARK SMILES O=c1c(O[C@@H]2O[C@H](CO)[C@@H](O)[C@H](O)[C@H]2O)c(-c2ccc(O)c(O)c2)oc2cc(O)cc(O)c12
REMARK SMILES IDX 4 1 3 2 16 3 25 4 2 5 26 6 1 7 33 8 27 9 31 10 28 11 30 12
REMARK SMILES IDX 17 13 18 14 19 15 20 16 24 17 22 18 21 19 23 21 32 23 29 25
REMARK SMILES IDX 5 27 14 28 6 29 12 30 7 31 10 32 15 33 13 35 8 37 9 38 11 40
REMARK H PARENT 21 20 23 22 32 24 29 26 15 34 13 36 9 39 11 41
REMARK Flexibility Score: inf
ROOT
ATOM      1  O   UNL     1      10.672  12.165  -2.181  1.00  0.00    -0.454 OA
ENDROOT
BRANCH   1   2
ATOM      2  C   UNL     1      10.728  10.766  -2.210  1.00  0.00     0.214 A 
ATOM      3  C   UNL     1      11.927  10.075  -2.487  1.00  0.00     0.180 A 
ATOM      4  O   UNL     1      11.917   8.749  -2.588  1.00  0.00    -0.452 OA
ATOM      5  C   UNL     1       9.565  10.028  -1.964  1.00  0.00     0.239 A 
ATOM      6  C   UNL     1      10.828   8.012  -2.398  1.00  0.00     0.146 A 
ATOM      7  O   UNL     1       8.501  10.636  -1.672  1.00  0.00    -0.285 OA
ATOM      8  C   UNL     1       9.596   8.622  -2.061  1.00  0.00     0.111 A 
ATOM      9  C   UNL     1      10.915   6.623  -2.525  1.00  0.00     0.094 A 
ATOM     10  C   UNL     1       8.459   7.806  -1.849  1.00  0.00     0.134 A 
ATOM     11  C   UNL     1       9.787   5.823  -2.317  1.00  0.00     0.123 A 
ATOM     12  C   UNL     1       8.568   6.414  -1.980  1.00  0.00     0.093 A 
BRANCH   3  13
ATOM     13  C   UNL     1      13.220  10.775  -2.659  1.00  0.00     0.025 A 
ATOM     14  C   UNL     1      13.296  12.176  -2.631  1.00  0.00     0.016 A 
ATOM     15  C   UNL     1      14.524  12.818  -2.791  1.00  0.00     0.051 A 
ATOM     16  C   UNL     1      15.699  12.079  -2.965  1.00  0.00     0.157 A 
ATOM     17  C   UNL     1      14.399  10.030  -2.809  1.00  0.00     0.062 A 
ATOM     18  C   UNL     1      15.637  10.665  -2.969  1.00  0.00     0.158 A 
BRANCH  16  19
ATOM     19  O   UNL     1      16.895  12.782  -3.125  1.00  0.00    -0.504 OA
ATOM     20  H   UNL     1      17.597  12.874  -2.405  1.00  0.00     0.293 HD
ENDBRANCH  16  19
BRANCH  18  21
ATOM     21  O   UNL     1      16.768   9.861  -3.125  1.00  0.00    -0.504 OA
ATOM     22  H   UNL     1      17.639  10.012  -2.638  1.00  0.00     0.293 HD
ENDBRANCH  18  21
ENDBRANCH   3  13
BRANCH  10  23
ATOM     23  O   UNL     1       7.226   8.367  -1.514  1.00  0.00    -0.507 OA
ATOM     24  H   UNL     1       7.158   9.215  -0.963  1.00  0.00     0.293 HD
ENDBRANCH  10  23
BRANCH  11  25
ATOM     25  O   UNL     1       9.868   4.437  -2.441  1.00  0.00    -0.508 OA
ATOM     26  H   UNL     1      10.701   3.929  -2.170  1.00  0.00     0.293 HD
ENDBRANCH  11  25
ENDBRANCH   1   2
BRANCH   1  27
ATOM     27  C   UNL     1       9.682  12.918  -2.888  1.00  0.00     0.339 C 
ATOM     28  C   UNL     1       8.316  12.845  -2.183  1.00  0.00     0.214 C 
ATOM     29  O   UNL     1      10.118  14.252  -3.110  1.00  0.00    -0.332 OA
ATOM     30  C   UNL     1       8.315  13.660  -0.878  1.00  0.00     0.180 C 
ATOM     31  C   UNL     1      10.222  15.039  -1.930  1.00  0.00     0.179 C 
ATOM     32  C   UNL     1       8.914  15.066  -1.091  1.00  0.00     0.177 C 
BRANCH  28  33
ATOM     33  O   UNL     1       7.321  13.313  -3.056  1.00  0.00    -0.384 OA
ATOM     34  H   UNL     1       6.473  13.344  -2.540  1.00  0.00     0.211 HD
ENDBRANCH  28  33
BRANCH  30  35
ATOM     35  O   UNL     1       9.036  12.965   0.106  1.00  0.00    -0.387 OA
ATOM     36  H   UNL     1       8.381  12.657   0.785  1.00  0.00     0.211 HD
ENDBRANCH  30  35
BRANCH  31  37
ATOM     37  C   UNL     1      11.484  14.709  -1.106  1.00  0.00     0.191 C 
BRANCH  37  38
ATOM     38  O   UNL     1      12.551  15.514  -1.527  1.00  0.00    -0.394 OA
ATOM     39  H   UNL     1      12.586  15.433  -2.515  1.00  0.00     0.210 HD
ENDBRANCH  37  38
ENDBRANCH  31  37
BRANCH  32  40
ATOM     40  O   UNL     1       7.958  15.922  -1.672  1.00  0.00    -0.387 OA
ATOM     41  H   UNL     1       7.584  16.501  -0.960  1.00  0.00     0.211 HD
ENDBRANCH  32  40
ENDBRANCH   1  27
TORSDOF 12
ENDMDL
MODEL 6
REMARK VINA RESULT:    -0.908      1.718      6.071
REMARK INTER + INTRA:          -2.023
REMARK INTER:                  -4.912
REMARK INTRA:                   2.890
REMARK UNBOUND:                -0.691
REMARK SMILES O=c1c(O[C@@H]2O[C@H](CO)[C@@H](O)[C@H](O)[C@H]2O)c(-c2ccc(O)c(O)c2)oc2cc(O)cc(O)c12
REMARK SMILES IDX 4 1 3 2 16 3 25 4 2 5 26 6 1 7 33 8 27 9 31 10 28 11 30 12
REMARK SMILES IDX 17 13 18 14 19 15 20 16 24 17 22 18 21 19 23 21 32 23 29 25
REMARK SMILES IDX 5 27 14 28 6 29 12 30 7 31 10 32 15 33 13 35 8 37 9 38 11 40
REMARK H PARENT 21 20 23 22 32 24 29 26 15 34 13 36 9 39 11 41
REMARK Flexibility Score: inf
ROOT
ATOM      1  O   UNL     1      11.600  13.268  -1.517  1.00  0.00    -0.454 OA
ENDROOT
BRANCH   1   2
ATOM      2  C   UNL     1      12.809  13.860  -1.905  1.00  0.00     0.214 A 
ATOM      3  C   UNL     1      13.912  13.088  -2.330  1.00  0.00     0.180 A 
ATOM      4  O   UNL     1      15.067  13.685  -2.608  1.00  0.00    -0.452 OA
ATOM      5  C   UNL     1      12.935  15.253  -1.864  1.00  0.00     0.239 A 
ATOM      6  C   UNL     1      15.240  15.001  -2.547  1.00  0.00     0.146 A 
ATOM      7  O   UNL     1      11.941  15.951  -1.527  1.00  0.00    -0.285 OA
ATOM      8  C   UNL     1      14.170  15.852  -2.183  1.00  0.00     0.111 A 
ATOM      9  C   UNL     1      16.493  15.537  -2.858  1.00  0.00     0.094 A 
ATOM     10  C   UNL     1      14.385  17.251  -2.144  1.00  0.00     0.134 A 
ATOM     11  C   UNL     1      16.699  16.920  -2.815  1.00  0.00     0.123 A 
ATOM     12  C   UNL     1      15.649  17.769  -2.461  1.00  0.00     0.093 A 
BRANCH   3  13
ATOM     13  C   UNL     1      13.830  11.620  -2.498  1.00  0.00     0.025 A 
ATOM     14  C   UNL     1      14.961  10.867  -2.851  1.00  0.00     0.016 A 
ATOM     15  C   UNL     1      14.866   9.482  -3.002  1.00  0.00     0.051 A 
ATOM     16  C   UNL     1      13.651   8.823  -2.788  1.00  0.00     0.157 A 
ATOM     17  C   UNL     1      12.616  10.959  -2.260  1.00  0.00     0.062 A 
ATOM     18  C   UNL     1      12.511   9.570  -2.408  1.00  0.00     0.158 A 
BRANCH  16  19
ATOM     19  O   UNL     1      13.622   7.437  -2.960  1.00  0.00    -0.504 OA
ATOM     20  H   UNL     1      14.225   6.794  -2.468  1.00  0.00     0.293 HD
ENDBRANCH  16  19
BRANCH  18  21
ATOM     21  O   UNL     1      11.269   8.981  -2.166  1.00  0.00    -0.504 OA
ATOM     22  H   UNL     1      11.074   8.000  -2.302  1.00  0.00     0.293 HD
ENDBRANCH  18  21
ENDBRANCH   3  13
BRANCH  10  23
ATOM     23  O   UNL     1      13.356  18.125  -1.791  1.00  0.00    -0.507 OA
ATOM     24  H   UNL     1      13.490  19.130  -1.783  1.00  0.00     0.293 HD
ENDBRANCH  10  23
BRANCH  11  25
ATOM     25  O   UNL     1      17.945  17.461  -3.125  1.00  0.00    -0.508 OA
ATOM     26  H   UNL     1      18.748  17.322  -2.523  1.00  0.00     0.293 HD
ENDBRANCH  11  25
ENDBRANCH   1   2
BRANCH   1  27
ATOM     27  C   UNL     1      10.671  12.714  -2.453  1.00  0.00     0.339 C 
ATOM     28  C   UNL     1       9.752  11.678  -1.782  1.00  0.00     0.214 C 
ATOM     29  O   UNL     1       9.950  13.738  -3.125  1.00  0.00    -0.332 OA
ATOM     30  C   UNL     1       8.736  12.354  -0.845  1.00  0.00     0.180 C 
ATOM     31  C   UNL     1       9.051  14.463  -2.294  1.00  0.00     0.179 C 
ATOM     32  C   UNL     1       8.048  13.553  -1.531  1.00  0.00     0.177 C 
BRANCH  28  33
ATOM     33  O   UNL     1       9.090  10.937  -2.774  1.00  0.00    -0.384 OA
ATOM     34  H   UNL     1       9.051  11.509  -3.585  1.00  0.00     0.211 HD
ENDBRANCH  28  33
BRANCH  30  35
ATOM     35  O   UNL     1       9.389  12.769   0.327  1.00  0.00    -0.387 OA
ATOM     36  H   UNL     1       9.723  11.951   0.780  1.00  0.00     0.211 HD
ENDBRANCH  30  35
BRANCH  31  37
ATOM     37  C   UNL     1       9.772  15.488  -1.394  1.00  0.00     0.191 C 
BRANCH  37  38
ATOM     38  O   UNL     1       8.922  15.888  -0.354  1.00  0.00    -0.394 OA
ATOM     39  H   UNL     1       8.521  16.750  -0.640  1.00  0.00     0.210 HD
ENDBRANCH  37  38
ENDBRANCH  31  37
BRANCH  32  40
ATOM     40  O   UNL     1       7.022  13.105  -2.385  1.00  0.00    -0.387 OA
ATOM     41  H   UNL     1       7.389  12.391  -2.966  1.00  0.00     0.211 HD
ENDBRANCH  32  40
ENDBRANCH   1  27
TORSDOF 12
ENDMDL
