MODEL 1
REMARK VINA RESULT:    -4.223      0.000      0.000
REMARK INTER + INTRA:         -15.565
REMARK INTER:                 -11.135
REMARK INTRA:                  -4.430
REMARK UNBOUND:                -4.430
REMARK SMILES CCCCCCCCCCCCCCCCCCCCCCCCCCCCCC(=O)[O-]
REMARK SMILES IDX 16 1 17 2 18 3 19 4 20 5 21 6 22 7 23 8 24 9 25 10 26 11
REMARK SMILES IDX 27 12 28 13 29 14 30 15 31 16 32 17 15 18 14 19 13 20 12 21
REMARK SMILES IDX 11 22 10 23 9 24 8 25 7 26 6 27 5 28 4 29 3 30 2 31 1 32
REMARK H PARENT
REMARK Flexibility Score: inf
ROOT
ATOM      1  C   UNL     1      -0.032   3.950  -3.726  1.00  0.00     0.000 C 
ENDROOT
BRANCH   1   2
ATOM      2  C   UNL     1      -0.059   3.322  -5.129  1.00  0.00     0.000 C 
BRANCH   2   3
ATOM      3  C   UNL     1      -0.864   4.181  -6.119  1.00  0.00     0.000 C 
BRANCH   3   4
ATOM      4  C   UNL     1      -1.253   3.390  -7.378  1.00  0.00     0.000 C 
BRANCH   4   5
ATOM      5  C   UNL     1      -0.654   3.975  -8.671  1.00  0.00     0.000 C 
BRANCH   5   6
ATOM      6  C   UNL     1       0.776   4.511  -8.470  1.00  0.00     0.000 C 
BRANCH   6   7
ATOM      7  C   UNL     1       1.864   3.480  -8.820  1.00  0.00     0.000 C 
BRANCH   7   8
ATOM      8  C   UNL     1       3.051   3.509  -7.841  1.00  0.00     0.000 C 
BRANCH   8   9
ATOM      9  C   UNL     1       2.785   4.417  -6.621  1.00  0.00     0.000 C 
BRANCH   9  10
ATOM     10  C   UNL     1       3.636   4.032  -5.400  1.00  0.00     0.000 C 
BRANCH  10  11
ATOM     11  C   UNL     1       3.930   2.524  -5.325  1.00  0.00     0.000 C 
BRANCH  11  12
ATOM     12  C   UNL     1       3.196   1.822  -4.173  1.00  0.00     0.000 C 
BRANCH  12  13
ATOM     13  C   UNL     1       3.690   2.349  -2.813  1.00  0.00     0.006 C 
BRANCH  13  14
ATOM     14  C   UNL     1       5.207   2.198  -2.637  1.00  0.00     0.053 C 
BRANCH  14  15
ATOM     15  C   UNL     1       5.739   3.091  -1.561  1.00  0.00     0.041 C 
ATOM     16  O   UNL     1       6.582   3.985  -1.836  1.00  0.00    -0.550 OA
ATOM     17  O   UNL     1       5.323   2.919  -0.249  1.00  0.00    -0.550 OA
ENDBRANCH  14  15
ENDBRANCH  13  14
ENDBRANCH  12  13
ENDBRANCH  11  12
ENDBRANCH  10  11
ENDBRANCH   9  10
ENDBRANCH   8   9
ENDBRANCH   7   8
ENDBRANCH   6   7
ENDBRANCH   5   6
ENDBRANCH   4   5
ENDBRANCH   3   4
ENDBRANCH   2   3
ENDBRANCH   1   2
BRANCH   1  18
ATOM     18  C   UNL     1      -0.460   2.986  -2.607  1.00  0.00     0.000 C 
BRANCH  18  19
ATOM     19  C   UNL     1      -1.711   2.139  -2.898  1.00  0.00     0.000 C 
BRANCH  19  20
ATOM     20  C   UNL     1      -2.915   2.493  -2.007  1.00  0.00     0.000 C 
BRANCH  20  21
ATOM     21  C   UNL     1      -4.191   2.821  -2.806  1.00  0.00     0.000 C 
BRANCH  21  22
ATOM     22  C   UNL     1      -3.904   3.508  -4.153  1.00  0.00     0.000 C 
BRANCH  22  23
ATOM     23  C   UNL     1      -4.539   2.749  -5.339  1.00  0.00     0.000 C 
BRANCH  23  24
ATOM     24  C   UNL     1      -3.805   1.432  -5.639  1.00  0.00    -0.000 C 
BRANCH  24  25
ATOM     25  C   UNL     1      -4.744   0.281  -6.045  1.00  0.00    -0.000 C 
BRANCH  25  26
ATOM     26  C   UNL     1      -4.964  -0.787  -4.958  1.00  0.00    -0.000 C 
BRANCH  26  27
ATOM     27  C   UNL     1      -4.006  -0.747  -3.749  1.00  0.00    -0.000 C 
BRANCH  27  28
ATOM     28  C   UNL     1      -3.300  -2.071  -3.399  1.00  0.00    -0.000 C 
BRANCH  28  29
ATOM     29  C   UNL     1      -4.110  -3.346  -3.720  1.00  0.00    -0.000 C 
BRANCH  29  30
ATOM     30  C   UNL     1      -3.272  -4.488  -4.321  1.00  0.00    -0.000 C 
BRANCH  30  31
ATOM     31  C   UNL     1      -2.543  -4.137  -5.624  1.00  0.00    -0.003 C 
ATOM     32  C   UNL     1      -3.498  -3.747  -6.755  1.00  0.00     0.004 C 
ENDBRANCH  30  31
ENDBRANCH  29  30
ENDBRANCH  28  29
ENDBRANCH  27  28
ENDBRANCH  26  27
ENDBRANCH  25  26
ENDBRANCH  24  25
ENDBRANCH  23  24
ENDBRANCH  22  23
ENDBRANCH  21  22
ENDBRANCH  20  21
ENDBRANCH  19  20
ENDBRANCH  18  19
ENDBRANCH   1  18
TORSDOF 28
ENDMDL
MODEL 2
REMARK VINA RESULT:    -4.206      3.295      7.352
REMARK INTER + INTRA:         -15.521
REMARK INTER:                  -9.926
REMARK INTRA:                  -5.595
REMARK UNBOUND:                -4.430
REMARK SMILES CCCCCCCCCCCCCCCCCCCCCCCCCCCCCC(=O)[O-]
REMARK SMILES IDX 16 1 17 2 18 3 19 4 20 5 21 6 22 7 23 8 24 9 25 10 26 11
REMARK SMILES IDX 27 12 28 13 29 14 30 15 31 16 32 17 15 18 14 19 13 20 12 21
REMARK SMILES IDX 11 22 10 23 9 24 8 25 7 26 6 27 5 28 4 29 3 30 2 31 1 32
REMARK H PARENT
REMARK Flexibility Score: inf
ROOT
ATOM      1  C   UNL     1      -2.811   1.571  -2.971  1.00  0.00     0.000 C 
ENDROOT
BRANCH   1   2
ATOM      2  C   UNL     1      -3.703   2.729  -2.495  1.00  0.00     0.000 C 
BRANCH   2   3
ATOM      3  C   UNL     1      -4.883   2.965  -3.451  1.00  0.00     0.000 C 
BRANCH   3   4
ATOM      4  C   UNL     1      -4.810   4.347  -4.121  1.00  0.00     0.000 C 
BRANCH   4   5
ATOM      5  C   UNL     1      -3.700   4.446  -5.185  1.00  0.00     0.000 C 
BRANCH   5   6
ATOM      6  C   UNL     1      -3.771   3.309  -6.220  1.00  0.00     0.000 C 
BRANCH   6   7
ATOM      7  C   UNL     1      -2.415   2.619  -6.456  1.00  0.00     0.000 C 
BRANCH   7   8
ATOM      8  C   UNL     1      -1.510   3.400  -7.426  1.00  0.00     0.000 C 
BRANCH   8   9
ATOM      9  C   UNL     1      -0.117   3.692  -6.826  1.00  0.00     0.000 C 
BRANCH   9  10
ATOM     10  C   UNL     1       0.352   5.131  -7.090  1.00  0.00     0.000 C 
BRANCH  10  11
ATOM     11  C   UNL     1      -0.770   6.169  -6.909  1.00  0.00     0.000 C 
BRANCH  11  12
ATOM     12  C   UNL     1      -0.405   7.285  -5.917  1.00  0.00     0.000 C 
BRANCH  12  13
ATOM     13  C   UNL     1      -0.662   6.828  -4.469  1.00  0.00     0.006 C 
BRANCH  13  14
ATOM     14  C   UNL     1       0.451   7.262  -3.506  1.00  0.00     0.053 C 
BRANCH  14  15
ATOM     15  C   UNL     1       0.085   8.496  -2.744  1.00  0.00     0.041 C 
ATOM     16  O   UNL     1      -1.062   9.001  -2.867  1.00  0.00    -0.550 OA
ATOM     17  O   UNL     1       1.019   9.103  -1.918  1.00  0.00    -0.550 OA
ENDBRANCH  14  15
ENDBRANCH  13  14
ENDBRANCH  12  13
ENDBRANCH  11  12
ENDBRANCH  10  11
ENDBRANCH   9  10
ENDBRANCH   8   9
ENDBRANCH   7   8
ENDBRANCH   6   7
ENDBRANCH   5   6
ENDBRANCH   4   5
ENDBRANCH   3   4
ENDBRANCH   2   3
ENDBRANCH   1   2
BRANCH   1  18
ATOM     18  C   UNL     1      -1.306   1.885  -2.915  1.00  0.00     0.000 C 
BRANCH  18  19
ATOM     19  C   UNL     1      -0.919   3.349  -3.186  1.00  0.00     0.000 C 
BRANCH  19  20
ATOM     20  C   UNL     1       0.573   3.645  -2.948  1.00  0.00     0.000 C 
BRANCH  20  21
ATOM     21  C   UNL     1       1.512   2.795  -3.826  1.00  0.00     0.000 C 
BRANCH  21  22
ATOM     22  C   UNL     1       2.490   1.932  -3.010  1.00  0.00     0.000 C 
BRANCH  22  23
ATOM     23  C   UNL     1       3.854   1.772  -3.717  1.00  0.00     0.000 C 
BRANCH  23  24
ATOM     24  C   UNL     1       4.962   2.577  -3.018  1.00  0.00    -0.000 C 
BRANCH  24  25
ATOM     25  C   UNL     1       5.459   3.782  -3.837  1.00  0.00    -0.000 C 
BRANCH  25  26
ATOM     26  C   UNL     1       4.487   4.977  -3.885  1.00  0.00    -0.000 C 
BRANCH  26  27
ATOM     27  C   UNL     1       3.844   5.286  -5.252  1.00  0.00    -0.000 C 
BRANCH  27  28
ATOM     28  C   UNL     1       4.723   5.024  -6.490  1.00  0.00    -0.000 C 
BRANCH  28  29
ATOM     29  C   UNL     1       4.030   4.244  -7.629  1.00  0.00    -0.000 C 
BRANCH  29  30
ATOM     30  C   UNL     1       3.416   2.904  -7.189  1.00  0.00    -0.000 C 
BRANCH  30  31
ATOM     31  C   UNL     1       4.378   1.710  -7.226  1.00  0.00    -0.003 C 
ATOM     32  C   UNL     1       4.454   1.049  -8.605  1.00  0.00     0.004 C 
ENDBRANCH  30  31
ENDBRANCH  29  30
ENDBRANCH  28  29
ENDBRANCH  27  28
ENDBRANCH  26  27
ENDBRANCH  25  26
ENDBRANCH  24  25
ENDBRANCH  23  24
ENDBRANCH  22  23
ENDBRANCH  21  22
ENDBRANCH  20  21
ENDBRANCH  19  20
ENDBRANCH  18  19
ENDBRANCH   1  18
TORSDOF 28
ENDMDL
MODEL 3
REMARK VINA RESULT:    -4.181      3.596      8.691
REMARK INTER + INTRA:         -15.455
REMARK INTER:                 -10.130
REMARK INTRA:                  -5.325
REMARK UNBOUND:                -4.430
REMARK SMILES CCCCCCCCCCCCCCCCCCCCCCCCCCCCCC(=O)[O-]
REMARK SMILES IDX 16 1 17 2 18 3 19 4 20 5 21 6 22 7 23 8 24 9 25 10 26 11
REMARK SMILES IDX 27 12 28 13 29 14 30 15 31 16 32 17 15 18 14 19 13 20 12 21
REMARK SMILES IDX 11 22 10 23 9 24 8 25 7 26 6 27 5 28 4 29 3 30 2 31 1 32
REMARK H PARENT
REMARK Flexibility Score: inf
ROOT
ATOM      1  C   UNL     1       0.055   5.676  -5.377  1.00  0.00     0.000 C 
ENDROOT
BRANCH   1   2
ATOM      2  C   UNL     1       0.821   5.104  -6.581  1.00  0.00     0.000 C 
BRANCH   2   3
ATOM      3  C   UNL     1       0.237   3.756  -7.036  1.00  0.00     0.000 C 
BRANCH   3   4
ATOM      4  C   UNL     1      -1.298   3.747  -6.975  1.00  0.00     0.000 C 
BRANCH   4   5
ATOM      5  C   UNL     1      -1.862   2.645  -6.058  1.00  0.00     0.000 C 
BRANCH   5   6
ATOM      6  C   UNL     1      -2.972   3.165  -5.125  1.00  0.00     0.000 C 
BRANCH   6   7
ATOM      7  C   UNL     1      -2.529   3.264  -3.654  1.00  0.00     0.000 C 
BRANCH   7   8
ATOM      8  C   UNL     1      -2.280   1.887  -3.013  1.00  0.00     0.000 C 
BRANCH   8   9
ATOM      9  C   UNL     1      -3.576   1.059  -2.873  1.00  0.00     0.000 C 
BRANCH   9  10
ATOM     10  C   UNL     1      -3.530  -0.253  -3.672  1.00  0.00     0.000 C 
BRANCH  10  11
ATOM     11  C   UNL     1      -4.771  -0.459  -4.557  1.00  0.00     0.000 C 
BRANCH  11  12
ATOM     12  C   UNL     1      -6.045   0.164  -3.966  1.00  0.00     0.000 C 
BRANCH  12  13
ATOM     13  C   UNL     1      -6.732   1.076  -4.999  1.00  0.00     0.006 C 
BRANCH  13  14
ATOM     14  C   UNL     1      -6.441   2.563  -4.763  1.00  0.00     0.053 C 
BRANCH  14  15
ATOM     15  C   UNL     1      -6.788   2.990  -3.372  1.00  0.00     0.041 C 
ATOM     16  O   UNL     1      -5.942   3.596  -2.663  1.00  0.00    -0.550 OA
ATOM     17  O   UNL     1      -8.038   2.694  -2.848  1.00  0.00    -0.550 OA
ENDBRANCH  14  15
ENDBRANCH  13  14
ENDBRANCH  12  13
ENDBRANCH  11  12
ENDBRANCH  10  11
ENDBRANCH   9  10
ENDBRANCH   8   9
ENDBRANCH   7   8
ENDBRANCH   6   7
ENDBRANCH   5   6
ENDBRANCH   4   5
ENDBRANCH   3   4
ENDBRANCH   2   3
ENDBRANCH   1   2
BRANCH   1  18
ATOM     18  C   UNL     1       0.967   6.227  -4.267  1.00  0.00     0.000 C 
BRANCH  18  19
ATOM     19  C   UNL     1       1.629   5.173  -3.363  1.00  0.00     0.000 C 
BRANCH  19  20
ATOM     20  C   UNL     1       0.698   4.003  -2.999  1.00  0.00     0.000 C 
BRANCH  20  21
ATOM     21  C   UNL     1       1.345   2.620  -3.207  1.00  0.00     0.000 C 
BRANCH  21  22
ATOM     22  C   UNL     1       2.361   2.592  -4.362  1.00  0.00     0.000 C 
BRANCH  22  23
ATOM     23  C   UNL     1       3.649   1.828  -3.985  1.00  0.00     0.000 C 
BRANCH  23  24
ATOM     24  C   UNL     1       4.187   2.252  -2.609  1.00  0.00    -0.000 C 
BRANCH  24  25
ATOM     25  C   UNL     1       4.967   3.580  -2.635  1.00  0.00    -0.000 C 
BRANCH  25  26
ATOM     26  C   UNL     1       5.612   3.924  -3.991  1.00  0.00    -0.000 C 
BRANCH  26  27
ATOM     27  C   UNL     1       5.067   5.174  -4.714  1.00  0.00    -0.000 C 
BRANCH  27  28
ATOM     28  C   UNL     1       4.531   4.951  -6.141  1.00  0.00    -0.000 C 
BRANCH  28  29
ATOM     29  C   UNL     1       5.165   3.764  -6.898  1.00  0.00    -0.000 C 
BRANCH  29  30
ATOM     30  C   UNL     1       4.163   2.935  -7.720  1.00  0.00    -0.000 C 
BRANCH  30  31
ATOM     31  C   UNL     1       4.272   1.417  -7.529  1.00  0.00    -0.003 C 
ATOM     32  C   UNL     1       4.664   0.682  -8.813  1.00  0.00     0.004 C 
ENDBRANCH  30  31
ENDBRANCH  29  30
ENDBRANCH  28  29
ENDBRANCH  27  28
ENDBRANCH  26  27
ENDBRANCH  25  26
ENDBRANCH  24  25
ENDBRANCH  23  24
ENDBRANCH  22  23
ENDBRANCH  21  22
ENDBRANCH  20  21
ENDBRANCH  19  20
ENDBRANCH  18  19
ENDBRANCH   1  18
TORSDOF 28
ENDMDL
MODEL 4
REMARK VINA RESULT:    -4.179      3.240      8.610
REMARK INTER + INTRA:         -15.450
REMARK INTER:                 -10.631
REMARK INTRA:                  -4.819
REMARK UNBOUND:                -4.430
REMARK SMILES CCCCCCCCCCCCCCCCCCCCCCCCCCCCCC(=O)[O-]
REMARK SMILES IDX 16 1 17 2 18 3 19 4 20 5 21 6 22 7 23 8 24 9 25 10 26 11
REMARK SMILES IDX 27 12 28 13 29 14 30 15 31 16 32 17 15 18 14 19 13 20 12 21
REMARK SMILES IDX 11 22 10 23 9 24 8 25 7 26 6 27 5 28 4 29 3 30 2 31 1 32
REMARK H PARENT
REMARK Flexibility Score: inf
ROOT
ATOM      1  C   UNL     1      -2.663   1.665  -4.490  1.00  0.00     0.000 C 
ENDROOT
BRANCH   1   2
ATOM      2  C   UNL     1      -2.413   1.848  -2.984  1.00  0.00     0.000 C 
BRANCH   2   3
ATOM      3  C   UNL     1      -3.542   2.652  -2.315  1.00  0.00     0.000 C 
BRANCH   3   4
ATOM      4  C   UNL     1      -4.922   2.272  -2.873  1.00  0.00     0.000 C 
BRANCH   4   5
ATOM      5  C   UNL     1      -5.839   3.490  -3.103  1.00  0.00     0.000 C 
BRANCH   5   6
ATOM      6  C   UNL     1      -5.288   4.449  -4.175  1.00  0.00     0.000 C 
BRANCH   6   7
ATOM      7  C   UNL     1      -5.513   3.944  -5.612  1.00  0.00     0.000 C 
BRANCH   7   8
ATOM      8  C   UNL     1      -6.951   3.447  -5.851  1.00  0.00     0.000 C 
BRANCH   8   9
ATOM      9  C   UNL     1      -6.991   2.002  -6.394  1.00  0.00     0.000 C 
BRANCH   9  10
ATOM     10  C   UNL     1      -5.589   1.416  -6.624  1.00  0.00     0.000 C 
BRANCH  10  11
ATOM     11  C   UNL     1      -5.439  -0.012  -6.072  1.00  0.00     0.000 C 
BRANCH  11  12
ATOM     12  C   UNL     1      -6.413  -0.323  -4.926  1.00  0.00     0.000 C 
BRANCH  12  13
ATOM     13  C   UNL     1      -5.956  -1.572  -4.149  1.00  0.00     0.006 C 
BRANCH  13  14
ATOM     14  C   UNL     1      -4.517  -1.454  -3.633  1.00  0.00     0.053 C 
BRANCH  14  15
ATOM     15  C   UNL     1      -3.759  -2.735  -3.783  1.00  0.00     0.041 C 
ATOM     16  O   UNL     1      -2.502  -2.742  -3.713  1.00  0.00    -0.550 OA
ATOM     17  O   UNL     1      -4.441  -3.918  -4.026  1.00  0.00    -0.550 OA
ENDBRANCH  14  15
ENDBRANCH  13  14
ENDBRANCH  12  13
ENDBRANCH  11  12
ENDBRANCH  10  11
ENDBRANCH   9  10
ENDBRANCH   8   9
ENDBRANCH   7   8
ENDBRANCH   6   7
ENDBRANCH   5   6
ENDBRANCH   4   5
ENDBRANCH   3   4
ENDBRANCH   2   3
ENDBRANCH   1   2
BRANCH   1  18
ATOM     18  C   UNL     1      -2.115   2.813  -5.354  1.00  0.00     0.000 C 
BRANCH  18  19
ATOM     19  C   UNL     1      -0.611   3.103  -5.202  1.00  0.00     0.000 C 
BRANCH  19  20
ATOM     20  C   UNL     1      -0.305   4.294  -4.275  1.00  0.00     0.000 C 
BRANCH  20  21
ATOM     21  C   UNL     1       0.666   3.943  -3.131  1.00  0.00     0.000 C 
BRANCH  21  22
ATOM     22  C   UNL     1       1.284   2.541  -3.267  1.00  0.00     0.000 C 
BRANCH  22  23
ATOM     23  C   UNL     1       2.818   2.562  -3.086  1.00  0.00     0.000 C 
BRANCH  23  24
ATOM     24  C   UNL     1       3.528   1.640  -4.091  1.00  0.00    -0.000 C 
BRANCH  24  25
ATOM     25  C   UNL     1       4.022   2.370  -5.353  1.00  0.00    -0.000 C 
BRANCH  25  26
ATOM     26  C   UNL     1       4.023   3.907  -5.253  1.00  0.00    -0.000 C 
BRANCH  26  27
ATOM     27  C   UNL     1       2.957   4.651  -6.085  1.00  0.00    -0.000 C 
BRANCH  27  28
ATOM     28  C   UNL     1       2.394   3.890  -7.301  1.00  0.00    -0.000 C 
BRANCH  28  29
ATOM     29  C   UNL     1       3.342   3.812  -8.517  1.00  0.00    -0.000 C 
BRANCH  29  30
ATOM     30  C   UNL     1       3.420   2.419  -9.164  1.00  0.00    -0.000 C 
BRANCH  30  31
ATOM     31  C   UNL     1       4.747   1.681  -8.951  1.00  0.00    -0.003 C 
ATOM     32  C   UNL     1       4.605   0.160  -9.048  1.00  0.00     0.004 C 
ENDBRANCH  30  31
ENDBRANCH  29  30
ENDBRANCH  28  29
ENDBRANCH  27  28
ENDBRANCH  26  27
ENDBRANCH  25  26
ENDBRANCH  24  25
ENDBRANCH  23  24
ENDBRANCH  22  23
ENDBRANCH  21  22
ENDBRANCH  20  21
ENDBRANCH  19  20
ENDBRANCH  18  19
ENDBRANCH   1  18
TORSDOF 28
ENDMDL
MODEL 5
REMARK VINA RESULT:    -4.132      3.463      6.001
REMARK INTER + INTRA:         -15.326
REMARK INTER:                 -11.246
REMARK INTRA:                  -4.081
REMARK UNBOUND:                -4.430
REMARK SMILES CCCCCCCCCCCCCCCCCCCCCCCCCCCCCC(=O)[O-]
REMARK SMILES IDX 16 1 17 2 18 3 19 4 20 5 21 6 22 7 23 8 24 9 25 10 26 11
REMARK SMILES IDX 27 12 28 13 29 14 30 15 31 16 32 17 15 18 14 19 13 20 12 21
REMARK SMILES IDX 11 22 10 23 9 24 8 25 7 26 6 27 5 28 4 29 3 30 2 31 1 32
REMARK H PARENT
REMARK Flexibility Score: inf
ROOT
ATOM      1  C   UNL     1      -4.850   3.898  -3.740  1.00  0.00     0.000 C 
ENDROOT
BRANCH   1   2
ATOM      2  C   UNL     1      -3.724   4.243  -4.728  1.00  0.00     0.000 C 
BRANCH   2   3
ATOM      3  C   UNL     1      -3.909   3.521  -6.074  1.00  0.00     0.000 C 
BRANCH   3   4
ATOM      4  C   UNL     1      -2.692   2.653  -6.430  1.00  0.00     0.000 C 
BRANCH   4   5
ATOM      5  C   UNL     1      -1.758   3.312  -7.463  1.00  0.00     0.000 C 
BRANCH   5   6
ATOM      6  C   UNL     1      -0.425   3.773  -6.845  1.00  0.00     0.000 C 
BRANCH   6   7
ATOM      7  C   UNL     1      -0.192   3.220  -5.427  1.00  0.00     0.000 C 
BRANCH   7   8
ATOM      8  C   UNL     1      -0.086   4.329  -4.365  1.00  0.00     0.000 C 
BRANCH   8   9
ATOM      9  C   UNL     1       0.579   3.835  -3.062  1.00  0.00     0.000 C 
BRANCH   9  10
ATOM     10  C   UNL     1       1.543   2.661  -3.297  1.00  0.00     0.000 C 
BRANCH  10  11
ATOM     11  C   UNL     1       3.022   3.085  -3.265  1.00  0.00     0.000 C 
BRANCH  11  12
ATOM     12  C   UNL     1       3.557   3.514  -4.639  1.00  0.00     0.000 C 
BRANCH  12  13
ATOM     13  C   UNL     1       3.761   2.288  -5.549  1.00  0.00     0.006 C 
BRANCH  13  14
ATOM     14  C   UNL     1       4.509   2.630  -6.844  1.00  0.00     0.053 C 
BRANCH  14  15
ATOM     15  C   UNL     1       4.223   1.646  -7.934  1.00  0.00     0.041 C 
ATOM     16  O   UNL     1       3.880   2.047  -9.078  1.00  0.00    -0.550 OA
ATOM     17  O   UNL     1       4.311   0.286  -7.680  1.00  0.00    -0.550 OA
ENDBRANCH  14  15
ENDBRANCH  13  14
ENDBRANCH  12  13
ENDBRANCH  11  12
ENDBRANCH  10  11
ENDBRANCH   9  10
ENDBRANCH   8   9
ENDBRANCH   7   8
ENDBRANCH   6   7
ENDBRANCH   5   6
ENDBRANCH   4   5
ENDBRANCH   3   4
ENDBRANCH   2   3
ENDBRANCH   1   2
BRANCH   1  18
ATOM     18  C   UNL     1      -4.397   3.007  -2.571  1.00  0.00     0.000 C 
BRANCH  18  19
ATOM     19  C   UNL     1      -2.927   2.557  -2.605  1.00  0.00     0.000 C 
BRANCH  19  20
ATOM     20  C   UNL     1      -2.724   1.164  -3.228  1.00  0.00     0.000 C 
BRANCH  20  21
ATOM     21  C   UNL     1      -4.000   0.300  -3.221  1.00  0.00     0.000 C 
BRANCH  21  22
ATOM     22  C   UNL     1      -4.509  -0.042  -4.632  1.00  0.00     0.000 C 
BRANCH  22  23
ATOM     23  C   UNL     1      -5.934   0.499  -4.884  1.00  0.00     0.000 C 
BRANCH  23  24
ATOM     24  C   UNL     1      -6.718   0.685  -3.575  1.00  0.00    -0.000 C 
BRANCH  24  25
ATOM     25  C   UNL     1      -8.246   0.637  -3.759  1.00  0.00    -0.000 C 
BRANCH  25  26
ATOM     26  C   UNL     1      -8.990   1.912  -3.319  1.00  0.00    -0.000 C 
BRANCH  26  27
ATOM     27  C   UNL     1      -8.148   2.987  -2.601  1.00  0.00    -0.000 C 
BRANCH  27  28
ATOM     28  C   UNL     1      -8.877   3.814  -1.524  1.00  0.00    -0.000 C 
BRANCH  28  29
ATOM     29  C   UNL     1      -7.954   4.524  -0.511  1.00  0.00    -0.000 C 
BRANCH  29  30
ATOM     30  C   UNL     1      -8.671   5.004   0.762  1.00  0.00    -0.000 C 
BRANCH  30  31
ATOM     31  C   UNL     1      -7.769   5.705   1.786  1.00  0.00    -0.003 C 
ATOM     32  C   UNL     1      -7.529   7.180   1.459  1.00  0.00     0.004 C 
ENDBRANCH  30  31
ENDBRANCH  29  30
ENDBRANCH  28  29
ENDBRANCH  27  28
ENDBRANCH  26  27
ENDBRANCH  25  26
ENDBRANCH  24  25
ENDBRANCH  23  24
ENDBRANCH  22  23
ENDBRANCH  21  22
ENDBRANCH  20  21
ENDBRANCH  19  20
ENDBRANCH  18  19
ENDBRANCH   1  18
TORSDOF 28
ENDMDL
MODEL 6
REMARK VINA RESULT:    -4.115      2.541      3.743
REMARK INTER + INTRA:         -15.281
REMARK INTER:                 -10.988
REMARK INTRA:                  -4.293
REMARK UNBOUND:                -4.430
REMARK SMILES CCCCCCCCCCCCCCCCCCCCCCCCCCCCCC(=O)[O-]
REMARK SMILES IDX 16 1 17 2 18 3 19 4 20 5 21 6 22 7 23 8 24 9 25 10 26 11
REMARK SMILES IDX 27 12 28 13 29 14 30 15 31 16 32 17 15 18 14 19 13 20 12 21
REMARK SMILES IDX 11 22 10 23 9 24 8 25 7 26 6 27 5 28 4 29 3 30 2 31 1 32
REMARK H PARENT
REMARK Flexibility Score: inf
ROOT
ATOM      1  C   UNL     1      -3.578   4.528  -6.013  1.00  0.00     0.000 C 
ENDROOT
BRANCH   1   2
ATOM      2  C   UNL     1      -3.260   3.167  -6.652  1.00  0.00     0.000 C 
BRANCH   2   3
ATOM      3  C   UNL     1      -1.858   2.670  -6.261  1.00  0.00     0.000 C 
BRANCH   3   4
ATOM      4  C   UNL     1      -0.751   3.563  -6.843  1.00  0.00     0.000 C 
BRANCH   4   5
ATOM      5  C   UNL     1       0.413   3.802  -5.862  1.00  0.00     0.000 C 
BRANCH   5   6
ATOM      6  C   UNL     1       0.202   3.092  -4.512  1.00  0.00     0.000 C 
BRANCH   6   7
ATOM      7  C   UNL     1       0.373   4.029  -3.302  1.00  0.00     0.000 C 
BRANCH   7   8
ATOM      8  C   UNL     1       0.499   5.508  -3.707  1.00  0.00     0.000 C 
BRANCH   8   9
ATOM      9  C   UNL     1       1.901   6.083  -3.409  1.00  0.00     0.000 C 
BRANCH   9  10
ATOM     10  C   UNL     1       2.927   4.992  -3.062  1.00  0.00     0.000 C 
BRANCH  10  11
ATOM     11  C   UNL     1       4.117   4.957  -4.036  1.00  0.00     0.000 C 
BRANCH  11  12
ATOM     12  C   UNL     1       4.495   3.535  -4.476  1.00  0.00     0.000 C 
BRANCH  12  13
ATOM     13  C   UNL     1       4.080   3.291  -5.939  1.00  0.00     0.006 C 
BRANCH  13  14
ATOM     14  C   UNL     1       4.049   1.802  -6.306  1.00  0.00     0.053 C 
BRANCH  14  15
ATOM     15  C   UNL     1       4.287   1.577  -7.765  1.00  0.00     0.041 C 
ATOM     16  O   UNL     1       4.278   2.548  -8.567  1.00  0.00    -0.550 OA
ATOM     17  O   UNL     1       4.493   0.292  -8.244  1.00  0.00    -0.550 OA
ENDBRANCH  14  15
ENDBRANCH  13  14
ENDBRANCH  12  13
ENDBRANCH  11  12
ENDBRANCH  10  11
ENDBRANCH   9  10
ENDBRANCH   8   9
ENDBRANCH   7   8
ENDBRANCH   6   7
ENDBRANCH   5   6
ENDBRANCH   4   5
ENDBRANCH   3   4
ENDBRANCH   2   3
ENDBRANCH   1   2
BRANCH   1  18
ATOM     18  C   UNL     1      -3.656   4.489  -4.477  1.00  0.00     0.000 C 
BRANCH  18  19
ATOM     19  C   UNL     1      -4.878   3.762  -3.889  1.00  0.00     0.000 C 
BRANCH  19  20
ATOM     20  C   UNL     1      -4.541   2.869  -2.682  1.00  0.00     0.000 C 
BRANCH  20  21
ATOM     21  C   UNL     1      -3.039   2.548  -2.560  1.00  0.00     0.000 C 
BRANCH  21  22
ATOM     22  C   UNL     1      -2.669   1.156  -3.099  1.00  0.00     0.000 C 
BRANCH  22  23
ATOM     23  C   UNL     1      -3.916   0.274  -3.336  1.00  0.00     0.000 C 
BRANCH  23  24
ATOM     24  C   UNL     1      -4.172   0.031  -4.832  1.00  0.00    -0.000 C 
BRANCH  24  25
ATOM     25  C   UNL     1      -5.153  -1.124  -5.109  1.00  0.00    -0.000 C 
BRANCH  25  26
ATOM     26  C   UNL     1      -4.559  -2.297  -5.911  1.00  0.00    -0.000 C 
BRANCH  26  27
ATOM     27  C   UNL     1      -4.212  -3.571  -5.112  1.00  0.00    -0.000 C 
BRANCH  27  28
ATOM     28  C   UNL     1      -2.869  -3.552  -4.357  1.00  0.00    -0.000 C 
BRANCH  28  29
ATOM     29  C   UNL     1      -1.681  -4.169  -5.125  1.00  0.00    -0.000 C 
BRANCH  29  30
ATOM     30  C   UNL     1      -2.091  -5.005  -6.350  1.00  0.00    -0.000 C 
BRANCH  30  31
ATOM     31  C   UNL     1      -1.429  -4.587  -7.669  1.00  0.00    -0.003 C 
ATOM     32  C   UNL     1      -2.422  -3.995  -8.672  1.00  0.00     0.004 C 
ENDBRANCH  30  31
ENDBRANCH  29  30
ENDBRANCH  28  29
ENDBRANCH  27  28
ENDBRANCH  26  27
ENDBRANCH  25  26
ENDBRANCH  24  25
ENDBRANCH  23  24
ENDBRANCH  22  23
ENDBRANCH  21  22
ENDBRANCH  20  21
ENDBRANCH  19  20
ENDBRANCH  18  19
ENDBRANCH   1  18
TORSDOF 28
ENDMDL
MODEL 7
REMARK VINA RESULT:    -4.110      2.397      4.073
REMARK INTER + INTRA:         -15.267
REMARK INTER:                 -10.803
REMARK INTRA:                  -4.464
REMARK UNBOUND:                -4.430
REMARK SMILES CCCCCCCCCCCCCCCCCCCCCCCCCCCCCC(=O)[O-]
REMARK SMILES IDX 16 1 17 2 18 3 19 4 20 5 21 6 22 7 23 8 24 9 25 10 26 11
REMARK SMILES IDX 27 12 28 13 29 14 30 15 31 16 32 17 15 18 14 19 13 20 12 21
REMARK SMILES IDX 11 22 10 23 9 24 8 25 7 26 6 27 5 28 4 29 3 30 2 31 1 32
REMARK H PARENT
REMARK Flexibility Score: inf
ROOT
ATOM      1  C   UNL     1      -1.416   3.017  -6.423  1.00  0.00     0.000 C 
ENDROOT
BRANCH   1   2
ATOM      2  C   UNL     1      -0.122   3.592  -5.824  1.00  0.00     0.000 C 
BRANCH   2   3
ATOM      3  C   UNL     1      -0.416   4.698  -4.796  1.00  0.00     0.000 C 
BRANCH   3   4
ATOM      4  C   UNL     1       0.235   4.404  -3.436  1.00  0.00     0.000 C 
BRANCH   4   5
ATOM      5  C   UNL     1       0.876   3.005  -3.361  1.00  0.00     0.000 C 
BRANCH   5   6
ATOM      6  C   UNL     1       2.402   3.064  -3.162  1.00  0.00     0.000 C 
BRANCH   6   7
ATOM      7  C   UNL     1       3.137   1.848  -3.752  1.00  0.00     0.000 C 
BRANCH   7   8
ATOM      8  C   UNL     1       4.136   2.233  -4.859  1.00  0.00     0.000 C 
BRANCH   8   9
ATOM      9  C   UNL     1       3.553   3.270  -5.843  1.00  0.00     0.000 C 
BRANCH   9  10
ATOM     10  C   UNL     1       3.584   2.786  -7.301  1.00  0.00     0.000 C 
BRANCH  10  11
ATOM     11  C   UNL     1       4.321   1.446  -7.472  1.00  0.00     0.000 C 
BRANCH  11  12
ATOM     12  C   UNL     1       4.962   1.282  -8.858  1.00  0.00     0.000 C 
BRANCH  12  13
ATOM     13  C   UNL     1       5.656   2.587  -9.293  1.00  0.00     0.006 C 
BRANCH  13  14
ATOM     14  C   UNL     1       7.121   2.656  -8.843  1.00  0.00     0.053 C 
BRANCH  14  15
ATOM     15  C   UNL     1       7.456   3.976  -8.225  1.00  0.00     0.041 C 
ATOM     16  O   UNL     1       8.617   4.453  -8.336  1.00  0.00    -0.550 OA
ATOM     17  O   UNL     1       6.494   4.668  -7.504  1.00  0.00    -0.550 OA
ENDBRANCH  14  15
ENDBRANCH  13  14
ENDBRANCH  12  13
ENDBRANCH  11  12
ENDBRANCH  10  11
ENDBRANCH   9  10
ENDBRANCH   8   9
ENDBRANCH   7   8
ENDBRANCH   6   7
ENDBRANCH   5   6
ENDBRANCH   4   5
ENDBRANCH   3   4
ENDBRANCH   2   3
ENDBRANCH   1   2
BRANCH   1  18
ATOM     18  C   UNL     1      -2.579   2.932  -5.421  1.00  0.00     0.000 C 
BRANCH  18  19
ATOM     19  C   UNL     1      -2.454   1.842  -4.343  1.00  0.00     0.000 C 
BRANCH  19  20
ATOM     20  C   UNL     1      -2.978   2.278  -2.963  1.00  0.00     0.000 C 
BRANCH  20  21
ATOM     21  C   UNL     1      -4.092   3.341  -3.040  1.00  0.00     0.000 C 
BRANCH  21  22
ATOM     22  C   UNL     1      -5.420   2.875  -2.420  1.00  0.00     0.000 C 
BRANCH  22  23
ATOM     23  C   UNL     1      -6.443   2.443  -3.494  1.00  0.00     0.000 C 
BRANCH  23  24
ATOM     24  C   UNL     1      -6.515   3.446  -4.656  1.00  0.00    -0.000 C 
BRANCH  24  25
ATOM     25  C   UNL     1      -6.263   2.810  -6.036  1.00  0.00    -0.000 C 
BRANCH  25  26
ATOM     26  C   UNL     1      -6.339   1.271  -6.062  1.00  0.00    -0.000 C 
BRANCH  26  27
ATOM     27  C   UNL     1      -5.086   0.529  -6.571  1.00  0.00    -0.000 C 
BRANCH  27  28
ATOM     28  C   UNL     1      -4.751  -0.799  -5.864  1.00  0.00    -0.000 C 
BRANCH  28  29
ATOM     29  C   UNL     1      -5.102  -0.844  -4.362  1.00  0.00    -0.000 C 
BRANCH  29  30
ATOM     30  C   UNL     1      -3.920  -1.223  -3.452  1.00  0.00    -0.000 C 
BRANCH  30  31
ATOM     31  C   UNL     1      -3.771  -2.725  -3.180  1.00  0.00    -0.003 C 
ATOM     32  C   UNL     1      -2.883  -3.432  -4.208  1.00  0.00     0.004 C 
ENDBRANCH  30  31
ENDBRANCH  29  30
ENDBRANCH  28  29
ENDBRANCH  27  28
ENDBRANCH  26  27
ENDBRANCH  25  26
ENDBRANCH  24  25
ENDBRANCH  23  24
ENDBRANCH  22  23
ENDBRANCH  21  22
ENDBRANCH  20  21
ENDBRANCH  19  20
ENDBRANCH  18  19
ENDBRANCH   1  18
TORSDOF 28
ENDMDL
MODEL 8
REMARK VINA RESULT:    -4.095      4.170      8.925
REMARK INTER + INTRA:         -15.227
REMARK INTER:                 -10.556
REMARK INTRA:                  -4.671
REMARK UNBOUND:                -4.430
REMARK SMILES CCCCCCCCCCCCCCCCCCCCCCCCCCCCCC(=O)[O-]
REMARK SMILES IDX 16 1 17 2 18 3 19 4 20 5 21 6 22 7 23 8 24 9 25 10 26 11
REMARK SMILES IDX 27 12 28 13 29 14 30 15 31 16 32 17 15 18 14 19 13 20 12 21
REMARK SMILES IDX 11 22 10 23 9 24 8 25 7 26 6 27 5 28 4 29 3 30 2 31 1 32
REMARK H PARENT
REMARK Flexibility Score: inf
ROOT
ATOM      1  C   UNL     1       1.535   2.949  -3.661  1.00  0.00     0.000 C 
ENDROOT
BRANCH   1   2
ATOM      2  C   UNL     1       0.112   2.919  -3.081  1.00  0.00     0.000 C 
BRANCH   2   3
ATOM      3  C   UNL     1      -0.860   3.769  -3.917  1.00  0.00     0.000 C 
BRANCH   3   4
ATOM      4  C   UNL     1      -1.043   3.202  -5.333  1.00  0.00     0.000 C 
BRANCH   4   5
ATOM      5  C   UNL     1      -2.461   3.419  -5.895  1.00  0.00     0.000 C 
BRANCH   5   6
ATOM      6  C   UNL     1      -2.990   2.188  -6.655  1.00  0.00     0.000 C 
BRANCH   6   7
ATOM      7  C   UNL     1      -4.319   1.653  -6.091  1.00  0.00     0.000 C 
BRANCH   7   8
ATOM      8  C   UNL     1      -4.149   0.337  -5.311  1.00  0.00     0.000 C 
BRANCH   8   9
ATOM      9  C   UNL     1      -4.451   0.501  -3.806  1.00  0.00     0.000 C 
BRANCH   9  10
ATOM     10  C   UNL     1      -3.297   1.166  -3.040  1.00  0.00     0.000 C 
BRANCH  10  11
ATOM     11  C   UNL     1      -3.662   2.559  -2.497  1.00  0.00     0.000 C 
BRANCH  11  12
ATOM     12  C   UNL     1      -5.160   2.877  -2.610  1.00  0.00     0.000 C 
BRANCH  12  13
ATOM     13  C   UNL     1      -5.395   4.043  -3.589  1.00  0.00     0.006 C 
BRANCH  13  14
ATOM     14  C   UNL     1      -6.641   4.867  -3.239  1.00  0.00     0.053 C 
BRANCH  14  15
ATOM     15  C   UNL     1      -7.862   4.013  -3.112  1.00  0.00     0.041 C 
ATOM     16  O   UNL     1      -8.487   3.641  -4.140  1.00  0.00    -0.550 OA
ATOM     17  O   UNL     1      -8.326   3.650  -1.856  1.00  0.00    -0.550 OA
ENDBRANCH  14  15
ENDBRANCH  13  14
ENDBRANCH  12  13
ENDBRANCH  11  12
ENDBRANCH  10  11
ENDBRANCH   9  10
ENDBRANCH   8   9
ENDBRANCH   7   8
ENDBRANCH   6   7
ENDBRANCH   5   6
ENDBRANCH   4   5
ENDBRANCH   3   4
ENDBRANCH   2   3
ENDBRANCH   1   2
BRANCH   1  18
ATOM     18  C   UNL     1       2.455   1.850  -3.104  1.00  0.00     0.000 C 
BRANCH  18  19
ATOM     19  C   UNL     1       3.860   1.777  -3.726  1.00  0.00     0.000 C 
BRANCH  19  20
ATOM     20  C   UNL     1       4.981   2.218  -2.766  1.00  0.00     0.000 C 
BRANCH  20  21
ATOM     21  C   UNL     1       5.681   3.520  -3.202  1.00  0.00     0.000 C 
BRANCH  21  22
ATOM     22  C   UNL     1       5.209   4.034  -4.573  1.00  0.00     0.000 C 
BRANCH  22  23
ATOM     23  C   UNL     1       5.232   5.576  -4.655  1.00  0.00     0.000 C 
BRANCH  23  24
ATOM     24  C   UNL     1       4.459   6.225  -3.496  1.00  0.00    -0.000 C 
BRANCH  24  25
ATOM     25  C   UNL     1       2.934   6.034  -3.589  1.00  0.00    -0.000 C 
BRANCH  25  26
ATOM     26  C   UNL     1       2.267   6.731  -4.790  1.00  0.00    -0.000 C 
BRANCH  26  27
ATOM     27  C   UNL     1       1.539   5.817  -5.798  1.00  0.00    -0.000 C 
BRANCH  27  28
ATOM     28  C   UNL     1       2.409   5.214  -6.917  1.00  0.00    -0.000 C 
BRANCH  28  29
ATOM     29  C   UNL     1       2.417   3.671  -6.977  1.00  0.00    -0.000 C 
BRANCH  29  30
ATOM     30  C   UNL     1       3.483   3.084  -7.918  1.00  0.00    -0.000 C 
BRANCH  30  31
ATOM     31  C   UNL     1       4.208   1.845  -7.379  1.00  0.00    -0.003 C 
ATOM     32  C   UNL     1       4.508   0.810  -8.467  1.00  0.00     0.004 C 
ENDBRANCH  30  31
ENDBRANCH  29  30
ENDBRANCH  28  29
ENDBRANCH  27  28
ENDBRANCH  26  27
ENDBRANCH  25  26
ENDBRANCH  24  25
ENDBRANCH  23  24
ENDBRANCH  22  23
ENDBRANCH  21  22
ENDBRANCH  20  21
ENDBRANCH  19  20
ENDBRANCH  18  19
ENDBRANCH   1  18
TORSDOF 28
ENDMDL
MODEL 9
REMARK VINA RESULT:    -4.058      2.558      4.337
REMARK INTER + INTRA:         -15.130
REMARK INTER:                  -9.541
REMARK INTRA:                  -5.589
REMARK UNBOUND:                -4.430
REMARK SMILES CCCCCCCCCCCCCCCCCCCCCCCCCCCCCC(=O)[O-]
REMARK SMILES IDX 16 1 17 2 18 3 19 4 20 5 21 6 22 7 23 8 24 9 25 10 26 11
REMARK SMILES IDX 27 12 28 13 29 14 30 15 31 16 32 17 15 18 14 19 13 20 12 21
REMARK SMILES IDX 11 22 10 23 9 24 8 25 7 26 6 27 5 28 4 29 3 30 2 31 1 32
REMARK H PARENT
REMARK Flexibility Score: inf
ROOT
ATOM      1  C   UNL     1      -0.880   8.042  -4.104  1.00  0.00     0.000 C 
ENDROOT
BRANCH   1   2
ATOM      2  C   UNL     1       0.604   7.695  -3.896  1.00  0.00     0.000 C 
BRANCH   2   3
ATOM      3  C   UNL     1       0.776   6.436  -3.031  1.00  0.00     0.000 C 
BRANCH   3   4
ATOM      4  C   UNL     1       2.063   5.673  -3.380  1.00  0.00     0.000 C 
BRANCH   4   5
ATOM      5  C   UNL     1       2.821   6.278  -4.578  1.00  0.00     0.000 C 
BRANCH   5   6
ATOM      6  C   UNL     1       4.166   5.576  -4.842  1.00  0.00     0.000 C 
BRANCH   6   7
ATOM      7  C   UNL     1       4.299   5.045  -6.280  1.00  0.00     0.000 C 
BRANCH   7   8
ATOM      8  C   UNL     1       4.844   3.607  -6.338  1.00  0.00     0.000 C 
BRANCH   8   9
ATOM      9  C   UNL     1       3.723   2.548  -6.250  1.00  0.00     0.000 C 
BRANCH   9  10
ATOM     10  C   UNL     1       3.845   1.658  -5.004  1.00  0.00     0.000 C 
BRANCH  10  11
ATOM     11  C   UNL     1       2.932   2.113  -3.851  1.00  0.00     0.000 C 
BRANCH  11  12
ATOM     12  C   UNL     1       3.692   2.355  -2.539  1.00  0.00     0.000 C 
BRANCH  12  13
ATOM     13  C   UNL     1       5.213   2.321  -2.778  1.00  0.00     0.006 C 
BRANCH  13  14
ATOM     14  C   UNL     1       5.928   3.557  -2.217  1.00  0.00     0.053 C 
BRANCH  14  15
ATOM     15  C   UNL     1       5.575   3.808  -0.785  1.00  0.00     0.041 C 
ATOM     16  O   UNL     1       5.593   2.864   0.049  1.00  0.00    -0.550 OA
ATOM     17  O   UNL     1       5.199   5.079  -0.376  1.00  0.00    -0.550 OA
ENDBRANCH  14  15
ENDBRANCH  13  14
ENDBRANCH  12  13
ENDBRANCH  11  12
ENDBRANCH  10  11
ENDBRANCH   9  10
ENDBRANCH   8   9
ENDBRANCH   7   8
ENDBRANCH   6   7
ENDBRANCH   5   6
ENDBRANCH   4   5
ENDBRANCH   3   4
ENDBRANCH   2   3
ENDBRANCH   1   2
BRANCH   1  18
ATOM     18  C   UNL     1      -1.477   7.460  -5.397  1.00  0.00     0.000 C 
BRANCH  18  19
ATOM     19  C   UNL     1      -2.360   6.213  -5.223  1.00  0.00     0.000 C 
BRANCH  19  20
ATOM     20  C   UNL     1      -1.990   5.059  -6.172  1.00  0.00     0.000 C 
BRANCH  20  21
ATOM     21  C   UNL     1      -0.473   4.920  -6.402  1.00  0.00     0.000 C 
BRANCH  21  22
ATOM     22  C   UNL     1       0.145   3.718  -5.666  1.00  0.00     0.000 C 
BRANCH  22  23
ATOM     23  C   UNL     1      -0.903   2.943  -4.837  1.00  0.00     0.000 C 
BRANCH  23  24
ATOM     24  C   UNL     1      -0.560   2.936  -3.338  1.00  0.00    -0.000 C 
BRANCH  24  25
ATOM     25  C   UNL     1      -1.744   2.541  -2.437  1.00  0.00    -0.000 C 
BRANCH  25  26
ATOM     26  C   UNL     1      -2.689   1.482  -3.037  1.00  0.00    -0.000 C 
BRANCH  26  27
ATOM     27  C   UNL     1      -4.187   1.847  -3.086  1.00  0.00    -0.000 C 
BRANCH  27  28
ATOM     28  C   UNL     1      -4.519   3.298  -3.485  1.00  0.00    -0.000 C 
BRANCH  28  29
ATOM     29  C   UNL     1      -5.032   3.475  -4.930  1.00  0.00    -0.000 C 
BRANCH  29  30
ATOM     30  C   UNL     1      -5.097   2.168  -5.738  1.00  0.00    -0.000 C 
BRANCH  30  31
ATOM     31  C   UNL     1      -3.943   1.963  -6.728  1.00  0.00    -0.003 C 
ATOM     32  C   UNL     1      -4.318   1.051  -7.898  1.00  0.00     0.004 C 
ENDBRANCH  30  31
ENDBRANCH  29  30
ENDBRANCH  28  29
ENDBRANCH  27  28
ENDBRANCH  26  27
ENDBRANCH  25  26
ENDBRANCH  24  25
ENDBRANCH  23  24
ENDBRANCH  22  23
ENDBRANCH  21  22
ENDBRANCH  20  21
ENDBRANCH  19  20
ENDBRANCH  18  19
ENDBRANCH   1  18
TORSDOF 28
ENDMDL
