MODEL 1
REMARK VINA RESULT:    -1.932      0.000      0.000
REMARK INTER + INTRA:          -4.788
REMARK INTER:                  -3.513
REMARK INTRA:                  -1.275
REMARK UNBOUND:                -1.275
REMARK SMILES CCCCCCCCCCCCCCCC(=O)[O-]
REMARK SMILES IDX 9 1 10 2 11 3 12 4 13 5 14 6 15 7 16 8 17 9 18 10 8 11 7 12
REMARK SMILES IDX 6 13 5 14 4 15 3 16 2 17 1 18
REMARK H PARENT
REMARK Flexibility Score: inf
ROOT
ATOM      1  C   UNL     1       8.903 -20.666 -14.383  1.00  0.00     0.000 C 
ENDROOT
BRANCH   1   2
ATOM      2  C   UNL     1      10.264 -20.140 -14.872  1.00  0.00     0.000 C 
BRANCH   2   3
ATOM      3  C   UNL     1      11.125 -21.224 -15.539  1.00  0.00     0.000 C 
BRANCH   3   4
ATOM      4  C   UNL     1      10.943 -21.207 -17.064  1.00  0.00     0.000 C 
BRANCH   4   5
ATOM      5  C   UNL     1      11.097 -22.600 -17.696  1.00  0.00     0.000 C 
BRANCH   5   6
ATOM      6  C   UNL     1      10.013 -22.896 -18.747  1.00  0.00     0.006 C 
BRANCH   6   7
ATOM      7  C   UNL     1       9.513 -21.620 -19.439  1.00  0.00     0.053 C 
BRANCH   7   8
ATOM      8  C   UNL     1       9.519 -21.755 -20.930  1.00  0.00     0.041 C 
ATOM      9  O   UNL     1       8.997 -22.762 -21.477  1.00  0.00    -0.550 OA
ATOM     10  O   UNL     1      10.074 -20.754 -21.718  1.00  0.00    -0.550 OA
ENDBRANCH   7   8
ENDBRANCH   6   7
ENDBRANCH   5   6
ENDBRANCH   4   5
ENDBRANCH   3   4
ENDBRANCH   2   3
ENDBRANCH   1   2
BRANCH   1  11
ATOM     11  C   UNL     1       7.849 -20.887 -15.484  1.00  0.00     0.000 C 
BRANCH  11  12
ATOM     12  C   UNL     1       7.667 -22.370 -15.851  1.00  0.00    -0.000 C 
BRANCH  12  13
ATOM     13  C   UNL     1       6.756 -22.579 -17.076  1.00  0.00    -0.000 C 
BRANCH  13  14
ATOM     14  C   UNL     1       5.279 -22.873 -16.758  1.00  0.00    -0.000 C 
BRANCH  14  15
ATOM     15  C   UNL     1       4.487 -21.615 -16.361  1.00  0.00    -0.000 C 
BRANCH  15  16
ATOM     16  C   UNL     1       3.438 -21.898 -15.274  1.00  0.00    -0.000 C 
BRANCH  16  17
ATOM     17  C   UNL     1       2.284 -22.777 -15.779  1.00  0.00    -0.003 C 
ATOM     18  C   UNL     1       1.073 -21.927 -16.157  1.00  0.00     0.004 C 
ENDBRANCH  16  17
ENDBRANCH  15  16
ENDBRANCH  14  15
ENDBRANCH  13  14
ENDBRANCH  12  13
ENDBRANCH  11  12
ENDBRANCH   1  11
TORSDOF 14
ENDMDL
MODEL 2
REMARK VINA RESULT:    -1.717      5.127      8.910
REMARK INTER + INTRA:          -4.397
REMARK INTER:                  -4.053
REMARK INTRA:                  -0.344
REMARK UNBOUND:                -1.275
REMARK SMILES CCCCCCCCCCCCCCCC(=O)[O-]
REMARK SMILES IDX 9 1 10 2 11 3 12 4 13 5 14 6 15 7 16 8 17 9 18 10 8 11 7 12
REMARK SMILES IDX 6 13 5 14 4 15 3 16 2 17 1 18
REMARK H PARENT
REMARK Flexibility Score: inf
ROOT
ATOM      1  C   UNL     1      -0.698 -23.125 -15.349  1.00  0.00     0.000 C 
ENDROOT
BRANCH   1   2
ATOM      2  C   UNL     1       0.457 -22.230 -15.833  1.00  0.00     0.000 C 
BRANCH   2   3
ATOM      3  C   UNL     1       1.785 -22.988 -15.982  1.00  0.00     0.000 C 
BRANCH   3   4
ATOM      4  C   UNL     1       2.975 -22.082 -15.634  1.00  0.00     0.000 C 
BRANCH   4   5
ATOM      5  C   UNL     1       4.281 -22.531 -16.311  1.00  0.00     0.000 C 
BRANCH   5   6
ATOM      6  C   UNL     1       5.453 -21.575 -16.028  1.00  0.00     0.006 C 
BRANCH   6   7
ATOM      7  C   UNL     1       6.787 -22.321 -15.885  1.00  0.00     0.053 C 
BRANCH   7   8
ATOM      8  C   UNL     1       7.770 -21.914 -16.939  1.00  0.00     0.041 C 
ATOM      9  O   UNL     1       7.409 -21.832 -18.143  1.00  0.00    -0.550 OA
ATOM     10  O   UNL     1       9.075 -21.596 -16.588  1.00  0.00    -0.550 OA
ENDBRANCH   7   8
ENDBRANCH   6   7
ENDBRANCH   5   6
ENDBRANCH   4   5
ENDBRANCH   3   4
ENDBRANCH   2   3
ENDBRANCH   1   2
BRANCH   1  11
ATOM     11  C   UNL     1      -1.931 -22.375 -14.812  1.00  0.00     0.000 C 
BRANCH  11  12
ATOM     12  C   UNL     1      -3.253 -23.101 -15.115  1.00  0.00    -0.000 C 
BRANCH  12  13
ATOM     13  C   UNL     1      -4.095 -22.393 -16.194  1.00  0.00    -0.000 C 
BRANCH  13  14
ATOM     14  C   UNL     1      -5.517 -21.990 -15.763  1.00  0.00    -0.000 C 
BRANCH  14  15
ATOM     15  C   UNL     1      -6.298 -21.264 -16.872  1.00  0.00    -0.000 C 
BRANCH  15  16
ATOM     16  C   UNL     1      -7.801 -21.587 -16.842  1.00  0.00    -0.000 C 
BRANCH  16  17
ATOM     17  C   UNL     1      -8.324 -21.841 -15.421  1.00  0.00    -0.003 C 
ATOM     18  C   UNL     1      -8.534 -20.528 -14.672  1.00  0.00     0.004 C 
ENDBRANCH  16  17
ENDBRANCH  15  16
ENDBRANCH  14  15
ENDBRANCH  13  14
ENDBRANCH  12  13
ENDBRANCH  11  12
ENDBRANCH   1  11
TORSDOF 14
ENDMDL
MODEL 3
REMARK VINA RESULT:    -1.713      1.722      3.245
REMARK INTER + INTRA:          -4.390
REMARK INTER:                  -3.679
REMARK INTRA:                  -0.711
REMARK UNBOUND:                -1.275
REMARK SMILES CCCCCCCCCCCCCCCC(=O)[O-]
REMARK SMILES IDX 9 1 10 2 11 3 12 4 13 5 14 6 15 7 16 8 17 9 18 10 8 11 7 12
REMARK SMILES IDX 6 13 5 14 4 15 3 16 2 17 1 18
REMARK H PARENT
REMARK Flexibility Score: inf
ROOT
ATOM      1  C   UNL     1       5.802 -21.247 -16.115  1.00  0.00     0.000 C 
ENDROOT
BRANCH   1   2
ATOM      2  C   UNL     1       7.321 -20.997 -16.117  1.00  0.00     0.000 C 
BRANCH   2   3
ATOM      3  C   UNL     1       8.143 -22.282 -16.304  1.00  0.00     0.000 C 
BRANCH   3   4
ATOM      4  C   UNL     1       9.128 -22.138 -17.473  1.00  0.00     0.000 C 
BRANCH   4   5
ATOM      5  C   UNL     1       8.423 -21.875 -18.814  1.00  0.00     0.000 C 
BRANCH   5   6
ATOM      6  C   UNL     1       9.297 -22.246 -20.025  1.00  0.00     0.006 C 
BRANCH   6   7
ATOM      7  C   UNL     1       9.924 -21.011 -20.687  1.00  0.00     0.053 C 
BRANCH   7   8
ATOM      8  C   UNL     1       9.469 -20.845 -22.104  1.00  0.00     0.041 C 
ATOM      9  O   UNL     1       8.528 -20.054 -22.378  1.00  0.00    -0.550 OA
ATOM     10  O   UNL     1      10.102 -21.541 -23.125  1.00  0.00    -0.550 OA
ENDBRANCH   7   8
ENDBRANCH   6   7
ENDBRANCH   5   6
ENDBRANCH   4   5
ENDBRANCH   3   4
ENDBRANCH   2   3
ENDBRANCH   1   2
BRANCH   1  11
ATOM     11  C   UNL     1       5.352 -22.570 -16.760  1.00  0.00     0.000 C 
BRANCH  11  12
ATOM     12  C   UNL     1       3.914 -22.963 -16.381  1.00  0.00    -0.000 C 
BRANCH  12  13
ATOM     13  C   UNL     1       3.195 -21.883 -15.548  1.00  0.00    -0.000 C 
BRANCH  13  14
ATOM     14  C   UNL     1       1.769 -21.533 -16.010  1.00  0.00    -0.000 C 
BRANCH  14  15
ATOM     15  C   UNL     1       0.744 -22.634 -15.685  1.00  0.00    -0.000 C 
BRANCH  15  16
ATOM     16  C   UNL     1      -0.705 -22.179 -15.924  1.00  0.00    -0.000 C 
BRANCH  16  17
ATOM     17  C   UNL     1      -1.659 -22.634 -14.810  1.00  0.00    -0.003 C 
ATOM     18  C   UNL     1      -3.070 -22.851 -15.352  1.00  0.00     0.004 C 
ENDBRANCH  16  17
ENDBRANCH  15  16
ENDBRANCH  14  15
ENDBRANCH  13  14
ENDBRANCH  12  13
ENDBRANCH  11  12
ENDBRANCH   1  11
TORSDOF 14
ENDMDL
MODEL 4
REMARK VINA RESULT:    -1.634      5.234      9.450
REMARK INTER + INTRA:          -4.246
REMARK INTER:                  -3.767
REMARK INTRA:                  -0.479
REMARK UNBOUND:                -1.275
REMARK SMILES CCCCCCCCCCCCCCCC(=O)[O-]
REMARK SMILES IDX 9 1 10 2 11 3 12 4 13 5 14 6 15 7 16 8 17 9 18 10 8 11 7 12
REMARK SMILES IDX 6 13 5 14 4 15 3 16 2 17 1 18
REMARK H PARENT
REMARK Flexibility Score: inf
ROOT
ATOM      1  C   UNL     1       5.097 -22.853 -16.805  1.00  0.00     0.000 C 
ENDROOT
BRANCH   1   2
ATOM      2  C   UNL     1       4.084 -22.101 -15.923  1.00  0.00     0.000 C 
BRANCH   2   3
ATOM      3  C   UNL     1       2.666 -22.688 -15.998  1.00  0.00     0.000 C 
BRANCH   3   4
ATOM      4  C   UNL     1       1.608 -21.586 -15.845  1.00  0.00     0.000 C 
BRANCH   4   5
ATOM      5  C   UNL     1       0.212 -22.034 -16.309  1.00  0.00     0.000 C 
BRANCH   5   6
ATOM      6  C   UNL     1      -0.569 -22.772 -15.208  1.00  0.00     0.006 C 
BRANCH   6   7
ATOM      7  C   UNL     1      -2.065 -22.429 -15.230  1.00  0.00     0.053 C 
BRANCH   7   8
ATOM      8  C   UNL     1      -2.767 -22.914 -13.999  1.00  0.00     0.041 C 
ATOM      9  O   UNL     1      -2.118 -23.118 -12.939  1.00  0.00    -0.550 OA
ATOM     10  O   UNL     1      -4.142 -23.112 -14.014  1.00  0.00    -0.550 OA
ENDBRANCH   7   8
ENDBRANCH   6   7
ENDBRANCH   5   6
ENDBRANCH   4   5
ENDBRANCH   3   4
ENDBRANCH   2   3
ENDBRANCH   1   2
BRANCH   1  11
ATOM     11  C   UNL     1       6.543 -22.869 -16.279  1.00  0.00     0.000 C 
BRANCH  11  12
ATOM     12  C   UNL     1       7.353 -21.635 -16.712  1.00  0.00    -0.000 C 
BRANCH  12  13
ATOM     13  C   UNL     1       8.337 -21.933 -17.859  1.00  0.00    -0.000 C 
BRANCH  13  14
ATOM     14  C   UNL     1       7.741 -22.690 -19.061  1.00  0.00    -0.000 C 
BRANCH  14  15
ATOM     15  C   UNL     1       8.503 -22.431 -20.372  1.00  0.00    -0.000 C 
BRANCH  15  16
ATOM     16  C   UNL     1       9.477 -21.246 -20.263  1.00  0.00    -0.000 C 
BRANCH  16  17
ATOM     17  C   UNL     1       9.658 -20.505 -21.596  1.00  0.00    -0.003 C 
ATOM     18  C   UNL     1       8.873 -21.186 -22.714  1.00  0.00     0.004 C 
ENDBRANCH  16  17
ENDBRANCH  15  16
ENDBRANCH  14  15
ENDBRANCH  13  14
ENDBRANCH  12  13
ENDBRANCH  11  12
ENDBRANCH   1  11
TORSDOF 14
ENDMDL
MODEL 5
REMARK VINA RESULT:    -1.625      7.093     11.909
REMARK INTER + INTRA:          -4.229
REMARK INTER:                  -3.943
REMARK INTRA:                  -0.285
REMARK UNBOUND:                -1.275
REMARK SMILES CCCCCCCCCCCCCCCC(=O)[O-]
REMARK SMILES IDX 9 1 10 2 11 3 12 4 13 5 14 6 15 7 16 8 17 9 18 10 8 11 7 12
REMARK SMILES IDX 6 13 5 14 4 15 3 16 2 17 1 18
REMARK H PARENT
REMARK Flexibility Score: inf
ROOT
ATOM      1  C   UNL     1       0.719 -22.220 -15.997  1.00  0.00     0.000 C 
ENDROOT
BRANCH   1   2
ATOM      2  C   UNL     1      -0.485 -23.067 -15.546  1.00  0.00     0.000 C 
BRANCH   2   3
ATOM      3  C   UNL     1      -1.673 -22.217 -15.070  1.00  0.00     0.000 C 
BRANCH   3   4
ATOM      4  C   UNL     1      -2.988 -23.002 -15.183  1.00  0.00     0.000 C 
BRANCH   4   5
ATOM      5  C   UNL     1      -3.966 -22.381 -16.193  1.00  0.00     0.000 C 
BRANCH   5   6
ATOM      6  C   UNL     1      -5.404 -22.299 -15.652  1.00  0.00     0.006 C 
BRANCH   6   7
ATOM      7  C   UNL     1      -6.258 -21.288 -16.430  1.00  0.00     0.053 C 
BRANCH   7   8
ATOM      8  C   UNL     1      -7.711 -21.400 -16.081  1.00  0.00     0.041 C 
ATOM      9  O   UNL     1      -8.424 -22.289 -16.617  1.00  0.00    -0.550 OA
ATOM     10  O   UNL     1      -8.270 -20.542 -15.142  1.00  0.00    -0.550 OA
ENDBRANCH   7   8
ENDBRANCH   6   7
ENDBRANCH   5   6
ENDBRANCH   4   5
ENDBRANCH   3   4
ENDBRANCH   2   3
ENDBRANCH   1   2
BRANCH   1  11
ATOM     11  C   UNL     1       2.100 -22.803 -15.646  1.00  0.00     0.000 C 
BRANCH  11  12
ATOM     12  C   UNL     1       3.244 -21.793 -15.843  1.00  0.00    -0.000 C 
BRANCH  12  13
ATOM     13  C   UNL     1       4.589 -22.465 -16.181  1.00  0.00    -0.000 C 
BRANCH  13  14
ATOM     14  C   UNL     1       5.733 -21.504 -16.553  1.00  0.00    -0.000 C 
BRANCH  14  15
ATOM     15  C   UNL     1       7.061 -21.855 -15.861  1.00  0.00    -0.000 C 
BRANCH  15  16
ATOM     16  C   UNL     1       7.754 -20.623 -15.257  1.00  0.00    -0.000 C 
BRANCH  16  17
ATOM     17  C   UNL     1       8.881 -20.996 -14.283  1.00  0.00    -0.003 C 
ATOM     18  C   UNL     1      10.181 -20.284 -14.649  1.00  0.00     0.004 C 
ENDBRANCH  16  17
ENDBRANCH  15  16
ENDBRANCH  14  15
ENDBRANCH  13  14
ENDBRANCH  12  13
ENDBRANCH  11  12
ENDBRANCH   1  11
TORSDOF 14
ENDMDL
MODEL 6
REMARK VINA RESULT:    -1.562      5.799     10.126
REMARK INTER + INTRA:          -4.115
REMARK INTER:                  -3.394
REMARK INTRA:                  -0.721
REMARK UNBOUND:                -1.275
REMARK SMILES CCCCCCCCCCCCCCCC(=O)[O-]
REMARK SMILES IDX 9 1 10 2 11 3 12 4 13 5 14 6 15 7 16 8 17 9 18 10 8 11 7 12
REMARK SMILES IDX 6 13 5 14 4 15 3 16 2 17 1 18
REMARK H PARENT
REMARK Flexibility Score: inf
ROOT
ATOM      1  C   UNL     1      -2.436 -22.414 -14.858  1.00  0.00     0.000 C 
ENDROOT
BRANCH   1   2
ATOM      2  C   UNL     1      -1.137 -23.110 -15.305  1.00  0.00     0.000 C 
BRANCH   2   3
ATOM      3  C   UNL     1      -0.138 -22.150 -15.968  1.00  0.00     0.000 C 
BRANCH   3   4
ATOM      4  C   UNL     1       1.294 -22.695 -15.869  1.00  0.00     0.000 C 
BRANCH   4   5
ATOM      5  C   UNL     1       2.360 -21.599 -16.028  1.00  0.00     0.000 C 
BRANCH   5   6
ATOM      6  C   UNL     1       3.715 -21.997 -15.417  1.00  0.00     0.006 C 
BRANCH   6   7
ATOM      7  C   UNL     1       4.748 -22.365 -16.490  1.00  0.00     0.053 C 
BRANCH   7   8
ATOM      8  C   UNL     1       6.104 -21.812 -16.173  1.00  0.00     0.041 C 
ATOM      9  O   UNL     1       7.053 -22.588 -15.886  1.00  0.00    -0.550 OA
ATOM     10  O   UNL     1       6.327 -20.442 -16.223  1.00  0.00    -0.550 OA
ENDBRANCH   7   8
ENDBRANCH   6   7
ENDBRANCH   5   6
ENDBRANCH   4   5
ENDBRANCH   3   4
ENDBRANCH   2   3
ENDBRANCH   1   2
BRANCH   1  11
ATOM     11  C   UNL     1      -3.709 -22.857 -15.603  1.00  0.00     0.000 C 
BRANCH  11  12
ATOM     12  C   UNL     1      -4.616 -21.677 -15.994  1.00  0.00    -0.000 C 
BRANCH  12  13
ATOM     13  C   UNL     1      -5.634 -22.040 -17.092  1.00  0.00    -0.000 C 
BRANCH  13  14
ATOM     14  C   UNL     1      -6.921 -21.194 -17.105  1.00  0.00    -0.000 C 
BRANCH  14  15
ATOM     15  C   UNL     1      -8.087 -21.862 -16.357  1.00  0.00    -0.000 C 
BRANCH  15  16
ATOM     16  C   UNL     1      -8.232 -21.352 -14.914  1.00  0.00    -0.000 C 
BRANCH  16  17
ATOM     17  C   UNL     1      -7.826 -22.403 -13.870  1.00  0.00    -0.003 C 
ATOM     18  C   UNL     1      -7.047 -21.764 -12.723  1.00  0.00     0.004 C 
ENDBRANCH  16  17
ENDBRANCH  15  16
ENDBRANCH  14  15
ENDBRANCH  13  14
ENDBRANCH  12  13
ENDBRANCH  11  12
ENDBRANCH   1  11
TORSDOF 14
ENDMDL
MODEL 7
REMARK VINA RESULT:    -1.552      5.164      8.897
REMARK INTER + INTRA:          -4.097
REMARK INTER:                  -3.725
REMARK INTRA:                  -0.372
REMARK UNBOUND:                -1.275
REMARK SMILES CCCCCCCCCCCCCCCC(=O)[O-]
REMARK SMILES IDX 9 1 10 2 11 3 12 4 13 5 14 6 15 7 16 8 17 9 18 10 8 11 7 12
REMARK SMILES IDX 6 13 5 14 4 15 3 16 2 17 1 18
REMARK H PARENT
REMARK Flexibility Score: inf
ROOT
ATOM      1  C   UNL     1      -0.685 -23.120 -15.457  1.00  0.00     0.000 C 
ENDROOT
BRANCH   1   2
ATOM      2  C   UNL     1       0.492 -22.278 -15.983  1.00  0.00     0.000 C 
BRANCH   2   3
ATOM      3  C   UNL     1       1.864 -22.876 -15.634  1.00  0.00     0.000 C 
BRANCH   3   4
ATOM      4  C   UNL     1       2.989 -21.872 -15.924  1.00  0.00     0.000 C 
BRANCH   4   5
ATOM      5  C   UNL     1       4.291 -22.554 -16.375  1.00  0.00     0.000 C 
BRANCH   5   6
ATOM      6  C   UNL     1       5.545 -21.751 -15.987  1.00  0.00     0.006 C 
BRANCH   6   7
ATOM      7  C   UNL     1       6.813 -22.616 -15.996  1.00  0.00     0.053 C 
BRANCH   7   8
ATOM      8  C   UNL     1       8.050 -21.792 -16.178  1.00  0.00     0.041 C 
ATOM      9  O   UNL     1       8.869 -22.073 -17.091  1.00  0.00    -0.550 OA
ATOM     10  O   UNL     1       8.283 -20.695 -15.358  1.00  0.00    -0.550 OA
ENDBRANCH   7   8
ENDBRANCH   6   7
ENDBRANCH   5   6
ENDBRANCH   4   5
ENDBRANCH   3   4
ENDBRANCH   2   3
ENDBRANCH   1   2
BRANCH   1  11
ATOM     11  C   UNL     1      -1.719 -22.350 -14.615  1.00  0.00     0.000 C 
BRANCH  11  12
ATOM     12  C   UNL     1      -3.131 -22.956 -14.700  1.00  0.00    -0.000 C 
BRANCH  12  13
ATOM     13  C   UNL     1      -3.841 -23.018 -13.334  1.00  0.00    -0.000 C 
BRANCH  13  14
ATOM     14  C   UNL     1      -5.376 -23.125 -13.393  1.00  0.00    -0.000 C 
BRANCH  14  15
ATOM     15  C   UNL     1      -5.973 -22.518 -14.674  1.00  0.00    -0.000 C 
BRANCH  15  16
ATOM     16  C   UNL     1      -7.231 -21.678 -14.398  1.00  0.00    -0.000 C 
BRANCH  16  17
ATOM     17  C   UNL     1      -7.767 -20.983 -15.658  1.00  0.00    -0.003 C 
ATOM     18  C   UNL     1      -8.372 -21.996 -16.627  1.00  0.00     0.004 C 
ENDBRANCH  16  17
ENDBRANCH  15  16
ENDBRANCH  14  15
ENDBRANCH  13  14
ENDBRANCH  12  13
ENDBRANCH  11  12
ENDBRANCH   1  11
TORSDOF 14
ENDMDL
MODEL 8
REMARK VINA RESULT:    -1.430      2.912      6.374
REMARK INTER + INTRA:          -3.874
REMARK INTER:                  -3.703
REMARK INTRA:                  -0.171
REMARK UNBOUND:                -1.275
REMARK SMILES CCCCCCCCCCCCCCCC(=O)[O-]
REMARK SMILES IDX 9 1 10 2 11 3 12 4 13 5 14 6 15 7 16 8 17 9 18 10 8 11 7 12
REMARK SMILES IDX 6 13 5 14 4 15 3 16 2 17 1 18
REMARK H PARENT
REMARK Flexibility Score: inf
ROOT
ATOM      1  C   UNL     1      10.847 -20.596 -15.677  1.00  0.00     0.000 C 
ENDROOT
BRANCH   1   2
ATOM      2  C   UNL     1       9.440 -20.483 -15.063  1.00  0.00     0.000 C 
BRANCH   2   3
ATOM      3  C   UNL     1       8.481 -21.582 -15.547  1.00  0.00     0.000 C 
BRANCH   3   4
ATOM      4  C   UNL     1       7.763 -21.155 -16.836  1.00  0.00     0.000 C 
BRANCH   4   5
ATOM      5  C   UNL     1       6.351 -20.606 -16.575  1.00  0.00     0.000 C 
BRANCH   5   6
ATOM      6  C   UNL     1       5.975 -20.624 -15.083  1.00  0.00     0.006 C 
BRANCH   6   7
ATOM      7  C   UNL     1       4.457 -20.693 -14.869  1.00  0.00     0.053 C 
BRANCH   7   8
ATOM      8  C   UNL     1       3.818 -21.737 -15.732  1.00  0.00     0.041 C 
ATOM      9  O   UNL     1       4.531 -22.585 -16.332  1.00  0.00    -0.550 OA
ATOM     10  O   UNL     1       2.435 -21.794 -15.850  1.00  0.00    -0.550 OA
ENDBRANCH   7   8
ENDBRANCH   6   7
ENDBRANCH   5   6
ENDBRANCH   4   5
ENDBRANCH   3   4
ENDBRANCH   2   3
ENDBRANCH   1   2
BRANCH   1  11
ATOM     11  C   UNL     1      11.124 -21.898 -16.450  1.00  0.00     0.000 C 
BRANCH  11  12
ATOM     12  C   UNL     1      11.073 -21.712 -17.976  1.00  0.00    -0.000 C 
BRANCH  12  13
ATOM     13  C   UNL     1      10.302 -22.837 -18.694  1.00  0.00    -0.000 C 
BRANCH  13  14
ATOM     14  C   UNL     1       9.705 -22.460 -20.062  1.00  0.00    -0.000 C 
BRANCH  14  15
ATOM     15  C   UNL     1      10.046 -21.023 -20.491  1.00  0.00    -0.000 C 
BRANCH  15  16
ATOM     16  C   UNL     1       9.270 -20.582 -21.743  1.00  0.00    -0.000 C 
BRANCH  16  17
ATOM     17  C   UNL     1       8.354 -21.685 -22.291  1.00  0.00    -0.003 C 
ATOM     18  C   UNL     1       9.041 -22.464 -23.410  1.00  0.00     0.004 C 
ENDBRANCH  16  17
ENDBRANCH  15  16
ENDBRANCH  14  15
ENDBRANCH  13  14
ENDBRANCH  12  13
ENDBRANCH  11  12
ENDBRANCH   1  11
TORSDOF 14
ENDMDL
MODEL 9
REMARK VINA RESULT:    -1.404      5.064      9.053
REMARK INTER + INTRA:          -3.828
REMARK INTER:                  -3.128
REMARK INTRA:                  -0.701
REMARK UNBOUND:                -1.275
REMARK SMILES CCCCCCCCCCCCCCCC(=O)[O-]
REMARK SMILES IDX 9 1 10 2 11 3 12 4 13 5 14 6 15 7 16 8 17 9 18 10 8 11 7 12
REMARK SMILES IDX 6 13 5 14 4 15 3 16 2 17 1 18
REMARK H PARENT
REMARK Flexibility Score: inf
ROOT
ATOM      1  C   UNL     1       4.597 -21.597 -15.733  1.00  0.00     0.000 C 
ENDROOT
BRANCH   1   2
ATOM      2  C   UNL     1       4.030 -22.958 -16.175  1.00  0.00     0.000 C 
BRANCH   2   3
ATOM      3  C   UNL     1       2.513 -23.077 -15.961  1.00  0.00     0.000 C 
BRANCH   3   4
ATOM      4  C   UNL     1       1.862 -21.690 -15.868  1.00  0.00     0.000 C 
BRANCH   4   5
ATOM      5  C   UNL     1       0.378 -21.702 -16.269  1.00  0.00     0.000 C 
BRANCH   5   6
ATOM      6  C   UNL     1      -0.453 -22.692 -15.434  1.00  0.00     0.006 C 
BRANCH   6   7
ATOM      7  C   UNL     1      -1.953 -22.373 -15.482  1.00  0.00     0.053 C 
BRANCH   7   8
ATOM      8  C   UNL     1      -2.662 -22.836 -14.246  1.00  0.00     0.041 C 
ATOM      9  O   UNL     1      -3.886 -23.124 -14.289  1.00  0.00    -0.550 OA
ATOM     10  O   UNL     1      -1.962 -22.978 -13.054  1.00  0.00    -0.550 OA
ENDBRANCH   7   8
ENDBRANCH   6   7
ENDBRANCH   5   6
ENDBRANCH   4   5
ENDBRANCH   3   4
ENDBRANCH   2   3
ENDBRANCH   1   2
BRANCH   1  11
ATOM     11  C   UNL     1       5.807 -21.094 -16.541  1.00  0.00     0.000 C 
BRANCH  11  12
ATOM     12  C   UNL     1       6.936 -20.545 -15.651  1.00  0.00    -0.000 C 
BRANCH  12  13
ATOM     13  C   UNL     1       8.235 -21.367 -15.753  1.00  0.00    -0.000 C 
BRANCH  13  14
ATOM     14  C   UNL     1       8.256 -22.435 -16.862  1.00  0.00    -0.000 C 
BRANCH  14  15
ATOM     15  C   UNL     1       8.842 -21.915 -18.186  1.00  0.00    -0.000 C 
BRANCH  15  16
ATOM     16  C   UNL     1       8.840 -22.984 -19.291  1.00  0.00    -0.000 C 
BRANCH  16  17
ATOM     17  C   UNL     1       7.631 -22.863 -20.230  1.00  0.00    -0.003 C 
ATOM     18  C   UNL     1       8.075 -22.584 -21.664  1.00  0.00     0.004 C 
ENDBRANCH  16  17
ENDBRANCH  15  16
ENDBRANCH  14  15
ENDBRANCH  13  14
ENDBRANCH  12  13
ENDBRANCH  11  12
ENDBRANCH   1  11
TORSDOF 14
ENDMDL
