MODEL 1
REMARK VINA RESULT:    -4.876      0.000      0.000
REMARK INTER + INTRA:         -18.603
REMARK INTER:                 -12.858
REMARK INTRA:                  -5.745
REMARK UNBOUND:                -5.745
REMARK SMILES CCCCCCCCCCCCCCCCCCCCCCCCCCCCCC(=O)[O-]
REMARK SMILES IDX 16 1 17 2 18 3 19 4 20 5 21 6 22 7 23 8 24 9 25 10 26 11
REMARK SMILES IDX 27 12 28 13 29 14 30 15 31 16 32 17 15 18 14 19 13 20 12 21
REMARK SMILES IDX 11 22 10 23 9 24 8 25 7 26 6 27 5 28 4 29 3 30 2 31 1 32
REMARK H PARENT
REMARK Flexibility Score: inf
ROOT
ATOM      1  C   UNL     1      25.998  14.821 -13.588  1.00  0.00     0.000 C 
ENDROOT
BRANCH   1   2
ATOM      2  C   UNL     1      26.079  13.424 -12.943  1.00  0.00     0.000 C 
BRANCH   2   3
ATOM      3  C   UNL     1      27.503  12.926 -12.632  1.00  0.00     0.000 C 
BRANCH   3   4
ATOM      4  C   UNL     1      27.791  12.824 -11.124  1.00  0.00     0.000 C 
BRANCH   4   5
ATOM      5  C   UNL     1      29.002  13.672 -10.699  1.00  0.00     0.000 C 
BRANCH   5   6
ATOM      6  C   UNL     1      28.596  14.999 -10.041  1.00  0.00     0.000 C 
BRANCH   6   7
ATOM      7  C   UNL     1      27.581  14.764  -8.912  1.00  0.00     0.000 C 
BRANCH   7   8
ATOM      8  C   UNL     1      26.296  15.592  -9.079  1.00  0.00     0.000 C 
BRANCH   8   9
ATOM      9  C   UNL     1      25.032  14.716  -9.131  1.00  0.00     0.000 C 
BRANCH   9  10
ATOM     10  C   UNL     1      23.813  15.455  -9.712  1.00  0.00     0.000 C 
BRANCH  10  11
ATOM     11  C   UNL     1      22.451  15.035  -9.129  1.00  0.00     0.000 C 
BRANCH  11  12
ATOM     12  C   UNL     1      21.895  16.045  -8.110  1.00  0.00     0.000 C 
BRANCH  12  13
ATOM     13  C   UNL     1      22.477  17.456  -8.303  1.00  0.00     0.006 C 
BRANCH  13  14
ATOM     14  C   UNL     1      22.556  18.235  -6.983  1.00  0.00     0.053 C 
BRANCH  14  15
ATOM     15  C   UNL     1      21.205  18.747  -6.589  1.00  0.00     0.041 C 
ATOM     16  O   UNL     1      20.422  19.200  -7.463  1.00  0.00    -0.550 OA
ATOM     17  O   UNL     1      20.818  18.740  -5.253  1.00  0.00    -0.550 OA
ENDBRANCH  14  15
ENDBRANCH  13  14
ENDBRANCH  12  13
ENDBRANCH  11  12
ENDBRANCH  10  11
ENDBRANCH   9  10
ENDBRANCH   8   9
ENDBRANCH   7   8
ENDBRANCH   6   7
ENDBRANCH   5   6
ENDBRANCH   4   5
ENDBRANCH   3   4
ENDBRANCH   2   3
ENDBRANCH   1   2
BRANCH   1  18
ATOM     18  C   UNL     1      25.931  15.958 -12.552  1.00  0.00     0.000 C 
BRANCH  18  19
ATOM     19  C   UNL     1      26.807  17.170 -12.936  1.00  0.00     0.000 C 
BRANCH  19  20
ATOM     20  C   UNL     1      26.508  18.442 -12.120  1.00  0.00     0.000 C 
BRANCH  20  21
ATOM     21  C   UNL     1      25.177  18.424 -11.344  1.00  0.00     0.000 C 
BRANCH  21  22
ATOM     22  C   UNL     1      23.966  18.994 -12.112  1.00  0.00     0.000 C 
BRANCH  22  23
ATOM     23  C   UNL     1      22.625  18.288 -11.833  1.00  0.00     0.000 C 
BRANCH  23  24
ATOM     24  C   UNL     1      22.135  17.353 -12.956  1.00  0.00    -0.000 C 
BRANCH  24  25
ATOM     25  C   UNL     1      22.509  17.806 -14.379  1.00  0.00    -0.000 C 
BRANCH  25  26
ATOM     26  C   UNL     1      23.417  16.794 -15.101  1.00  0.00    -0.000 C 
BRANCH  26  27
ATOM     27  C   UNL     1      23.993  17.348 -16.414  1.00  0.00    -0.000 C 
BRANCH  27  28
ATOM     28  C   UNL     1      25.368  18.005 -16.227  1.00  0.00    -0.000 C 
BRANCH  28  29
ATOM     29  C   UNL     1      25.291  19.517 -16.484  1.00  0.00    -0.000 C 
BRANCH  29  30
ATOM     30  C   UNL     1      25.278  20.303 -15.164  1.00  0.00    -0.000 C 
BRANCH  30  31
ATOM     31  C   UNL     1      24.072  21.249 -15.055  1.00  0.00    -0.003 C 
ATOM     32  C   UNL     1      23.053  21.037 -16.172  1.00  0.00     0.004 C 
ENDBRANCH  30  31
ENDBRANCH  29  30
ENDBRANCH  28  29
ENDBRANCH  27  28
ENDBRANCH  26  27
ENDBRANCH  25  26
ENDBRANCH  24  25
ENDBRANCH  23  24
ENDBRANCH  22  23
ENDBRANCH  21  22
ENDBRANCH  20  21
ENDBRANCH  19  20
ENDBRANCH  18  19
ENDBRANCH   1  18
TORSDOF 28
ENDMDL
MODEL 2
REMARK VINA RESULT:    -4.873      3.400      6.503
REMARK INTER + INTRA:         -18.594
REMARK INTER:                 -12.317
REMARK INTRA:                  -6.278
REMARK UNBOUND:                -5.745
REMARK SMILES CCCCCCCCCCCCCCCCCCCCCCCCCCCCCC(=O)[O-]
REMARK SMILES IDX 16 1 17 2 18 3 19 4 20 5 21 6 22 7 23 8 24 9 25 10 26 11
REMARK SMILES IDX 27 12 28 13 29 14 30 15 31 16 32 17 15 18 14 19 13 20 12 21
REMARK SMILES IDX 11 22 10 23 9 24 8 25 7 26 6 27 5 28 4 29 3 30 2 31 1 32
REMARK H PARENT
REMARK Flexibility Score: inf
ROOT
ATOM      1  C   UNL     1      27.875  14.932  -8.767  1.00  0.00     0.000 C 
ENDROOT
BRANCH   1   2
ATOM      2  C   UNL     1      28.626  14.980 -10.112  1.00  0.00     0.000 C 
BRANCH   2   3
ATOM      3  C   UNL     1      29.256  13.648 -10.559  1.00  0.00     0.000 C 
BRANCH   3   4
ATOM      4  C   UNL     1      28.484  12.968 -11.704  1.00  0.00     0.000 C 
BRANCH   4   5
ATOM      5  C   UNL     1      27.197  13.724 -12.074  1.00  0.00     0.000 C 
BRANCH   5   6
ATOM      6  C   UNL     1      26.678  13.364 -13.475  1.00  0.00     0.000 C 
BRANCH   6   7
ATOM      7  C   UNL     1      26.204  14.618 -14.224  1.00  0.00     0.000 C 
BRANCH   7   8
ATOM      8  C   UNL     1      24.717  14.931 -13.987  1.00  0.00     0.000 C 
BRANCH   8   9
ATOM      9  C   UNL     1      24.316  16.321 -14.511  1.00  0.00     0.000 C 
BRANCH   9  10
ATOM     10  C   UNL     1      23.079  16.897 -13.797  1.00  0.00     0.000 C 
BRANCH  10  11
ATOM     11  C   UNL     1      22.999  18.435 -13.761  1.00  0.00     0.000 C 
BRANCH  11  12
ATOM     12  C   UNL     1      24.064  19.114 -14.639  1.00  0.00     0.000 C 
BRANCH  12  13
ATOM     13  C   UNL     1      23.450  19.866 -15.832  1.00  0.00     0.006 C 
BRANCH  13  14
ATOM     14  C   UNL     1      22.881  18.909 -16.889  1.00  0.00     0.053 C 
BRANCH  14  15
ATOM     15  C   UNL     1      23.976  18.364 -17.753  1.00  0.00     0.041 C 
ATOM     16  O   UNL     1      24.039  17.129 -17.990  1.00  0.00    -0.550 OA
ATOM     17  O   UNL     1      24.937  19.217 -18.283  1.00  0.00    -0.550 OA
ENDBRANCH  14  15
ENDBRANCH  13  14
ENDBRANCH  12  13
ENDBRANCH  11  12
ENDBRANCH  10  11
ENDBRANCH   9  10
ENDBRANCH   8   9
ENDBRANCH   7   8
ENDBRANCH   6   7
ENDBRANCH   5   6
ENDBRANCH   4   5
ENDBRANCH   3   4
ENDBRANCH   2   3
ENDBRANCH   1   2
BRANCH   1  18
ATOM     18  C   UNL     1      27.894  13.537  -8.117  1.00  0.00     0.000 C 
BRANCH  18  19
ATOM     19  C   UNL     1      26.647  12.696  -8.465  1.00  0.00     0.000 C 
BRANCH  19  20
ATOM     20  C   UNL     1      25.394  13.535  -8.779  1.00  0.00     0.000 C 
BRANCH  20  21
ATOM     21  C   UNL     1      24.380  12.867  -9.727  1.00  0.00     0.000 C 
BRANCH  21  22
ATOM     22  C   UNL     1      23.738  13.810 -10.766  1.00  0.00     0.000 C 
BRANCH  22  23
ATOM     23  C   UNL     1      22.199  13.891 -10.712  1.00  0.00     0.000 C 
BRANCH  23  24
ATOM     24  C   UNL     1      21.627  15.313 -10.547  1.00  0.00    -0.000 C 
BRANCH  24  25
ATOM     25  C   UNL     1      21.715  15.881  -9.118  1.00  0.00    -0.000 C 
BRANCH  25  26
ATOM     26  C   UNL     1      22.347  17.284  -9.078  1.00  0.00    -0.000 C 
BRANCH  26  27
ATOM     27  C   UNL     1      23.344  17.516 -10.224  1.00  0.00    -0.000 C 
BRANCH  27  28
ATOM     28  C   UNL     1      24.797  17.241  -9.811  1.00  0.00    -0.000 C 
BRANCH  28  29
ATOM     29  C   UNL     1      25.641  16.830 -11.025  1.00  0.00    -0.000 C 
BRANCH  29  30
ATOM     30  C   UNL     1      26.183  18.061 -11.765  1.00  0.00    -0.000 C 
BRANCH  30  31
ATOM     31  C   UNL     1      27.537  17.792 -12.441  1.00  0.00    -0.003 C 
ATOM     32  C   UNL     1      27.518  18.083 -13.940  1.00  0.00     0.004 C 
ENDBRANCH  30  31
ENDBRANCH  29  30
ENDBRANCH  28  29
ENDBRANCH  27  28
ENDBRANCH  26  27
ENDBRANCH  25  26
ENDBRANCH  24  25
ENDBRANCH  23  24
ENDBRANCH  22  23
ENDBRANCH  21  22
ENDBRANCH  20  21
ENDBRANCH  19  20
ENDBRANCH  18  19
ENDBRANCH   1  18
TORSDOF 28
ENDMDL
MODEL 3
REMARK VINA RESULT:    -4.850      1.900      5.330
REMARK INTER + INTRA:         -18.534
REMARK INTER:                 -13.827
REMARK INTRA:                  -4.707
REMARK UNBOUND:                -5.745
REMARK SMILES CCCCCCCCCCCCCCCCCCCCCCCCCCCCCC(=O)[O-]
REMARK SMILES IDX 16 1 17 2 18 3 19 4 20 5 21 6 22 7 23 8 24 9 25 10 26 11
REMARK SMILES IDX 27 12 28 13 29 14 30 15 31 16 32 17 15 18 14 19 13 20 12 21
REMARK SMILES IDX 11 22 10 23 9 24 8 25 7 26 6 27 5 28 4 29 3 30 2 31 1 32
REMARK H PARENT
REMARK Flexibility Score: inf
ROOT
ATOM      1  C   UNL     1      24.101  14.800  -9.098  1.00  0.00     0.000 C 
ENDROOT
BRANCH   1   2
ATOM      2  C   UNL     1      24.789  16.179  -9.107  1.00  0.00     0.000 C 
BRANCH   2   3
ATOM      3  C   UNL     1      24.226  17.187 -10.125  1.00  0.00     0.000 C 
BRANCH   3   4
ATOM      4  C   UNL     1      23.489  16.515 -11.297  1.00  0.00     0.000 C 
BRANCH   4   5
ATOM      5  C   UNL     1      21.994  16.874 -11.333  1.00  0.00     0.000 C 
BRANCH   5   6
ATOM      6  C   UNL     1      21.533  17.627 -10.076  1.00  0.00     0.000 C 
BRANCH   6   7
ATOM      7  C   UNL     1      20.667  16.725  -9.183  1.00  0.00     0.000 C 
BRANCH   7   8
ATOM      8  C   UNL     1      20.893  16.973  -7.683  1.00  0.00     0.000 C 
BRANCH   8   9
ATOM      9  C   UNL     1      21.896  18.109  -7.417  1.00  0.00     0.000 C 
BRANCH   9  10
ATOM     10  C   UNL     1      21.631  18.845  -6.090  1.00  0.00     0.000 C 
BRANCH  10  11
ATOM     11  C   UNL     1      20.260  18.566  -5.446  1.00  0.00     0.000 C 
BRANCH  11  12
ATOM     12  C   UNL     1      19.347  19.802  -5.415  1.00  0.00     0.000 C 
BRANCH  12  13
ATOM     13  C   UNL     1      18.514  19.952  -6.700  1.00  0.00     0.006 C 
BRANCH  13  14
ATOM     14  C   UNL     1      18.456  21.407  -7.186  1.00  0.00     0.053 C 
BRANCH  14  15
ATOM     15  C   UNL     1      19.786  21.840  -7.720  1.00  0.00     0.041 C 
ATOM     16  O   UNL     1      20.043  21.725  -8.946  1.00  0.00    -0.550 OA
ATOM     17  O   UNL     1      20.750  22.354  -6.859  1.00  0.00    -0.550 OA
ENDBRANCH  14  15
ENDBRANCH  13  14
ENDBRANCH  12  13
ENDBRANCH  11  12
ENDBRANCH  10  11
ENDBRANCH   9  10
ENDBRANCH   8   9
ENDBRANCH   7   8
ENDBRANCH   6   7
ENDBRANCH   5   6
ENDBRANCH   4   5
ENDBRANCH   3   4
ENDBRANCH   2   3
ENDBRANCH   1   2
BRANCH   1  18
ATOM     18  C   UNL     1      25.090  13.633  -9.267  1.00  0.00     0.000 C 
BRANCH  18  19
ATOM     19  C   UNL     1      25.008  12.975 -10.661  1.00  0.00     0.000 C 
BRANCH  19  20
ATOM     20  C   UNL     1      26.259  13.197 -11.533  1.00  0.00     0.000 C 
BRANCH  20  21
ATOM     21  C   UNL     1      27.531  12.478 -11.048  1.00  0.00     0.000 C 
BRANCH  21  22
ATOM     22  C   UNL     1      28.794  13.362 -10.978  1.00  0.00     0.000 C 
BRANCH  22  23
ATOM     23  C   UNL     1      28.718  14.531  -9.976  1.00  0.00     0.000 C 
BRANCH  23  24
ATOM     24  C   UNL     1      28.800  15.936 -10.606  1.00  0.00    -0.000 C 
BRANCH  24  25
ATOM     25  C   UNL     1      27.545  16.366 -11.386  1.00  0.00    -0.000 C 
BRANCH  25  26
ATOM     26  C   UNL     1      27.731  17.711 -12.111  1.00  0.00    -0.000 C 
BRANCH  26  27
ATOM     27  C   UNL     1      26.451  18.184 -12.817  1.00  0.00    -0.000 C 
BRANCH  27  28
ATOM     28  C   UNL     1      26.151  17.389 -14.096  1.00  0.00    -0.000 C 
BRANCH  28  29
ATOM     29  C   UNL     1      24.718  17.653 -14.580  1.00  0.00    -0.000 C 
BRANCH  29  30
ATOM     30  C   UNL     1      24.456  19.158 -14.739  1.00  0.00    -0.000 C 
BRANCH  30  31
ATOM     31  C   UNL     1      23.101  19.583 -14.149  1.00  0.00    -0.003 C 
ATOM     32  C   UNL     1      23.213  20.085 -12.712  1.00  0.00     0.004 C 
ENDBRANCH  30  31
ENDBRANCH  29  30
ENDBRANCH  28  29
ENDBRANCH  27  28
ENDBRANCH  26  27
ENDBRANCH  25  26
ENDBRANCH  24  25
ENDBRANCH  23  24
ENDBRANCH  22  23
ENDBRANCH  21  22
ENDBRANCH  20  21
ENDBRANCH  19  20
ENDBRANCH  18  19
ENDBRANCH   1  18
TORSDOF 28
ENDMDL
MODEL 4
REMARK VINA RESULT:    -4.809      3.383      7.079
REMARK INTER + INTRA:         -18.426
REMARK INTER:                 -13.767
REMARK INTRA:                  -4.659
REMARK UNBOUND:                -5.745
REMARK SMILES CCCCCCCCCCCCCCCCCCCCCCCCCCCCCC(=O)[O-]
REMARK SMILES IDX 16 1 17 2 18 3 19 4 20 5 21 6 22 7 23 8 24 9 25 10 26 11
REMARK SMILES IDX 27 12 28 13 29 14 30 15 31 16 32 17 15 18 14 19 13 20 12 21
REMARK SMILES IDX 11 22 10 23 9 24 8 25 7 26 6 27 5 28 4 29 3 30 2 31 1 32
REMARK H PARENT
REMARK Flexibility Score: inf
ROOT
ATOM      1  C   UNL     1      26.571  17.986 -11.902  1.00  0.00     0.000 C 
ENDROOT
BRANCH   1   2
ATOM      2  C   UNL     1      26.978  16.636 -11.281  1.00  0.00     0.000 C 
BRANCH   2   3
ATOM      3  C   UNL     1      25.889  15.946 -10.440  1.00  0.00     0.000 C 
BRANCH   3   4
ATOM      4  C   UNL     1      26.417  15.387  -9.108  1.00  0.00     0.000 C 
BRANCH   4   5
ATOM      5  C   UNL     1      27.907  15.011  -9.178  1.00  0.00     0.000 C 
BRANCH   5   6
ATOM      6  C   UNL     1      28.160  13.527  -8.873  1.00  0.00     0.000 C 
BRANCH   6   7
ATOM      7  C   UNL     1      27.793  12.649 -10.079  1.00  0.00     0.000 C 
BRANCH   7   8
ATOM      8  C   UNL     1      28.605  12.991 -11.339  1.00  0.00     0.000 C 
BRANCH   8   9
ATOM      9  C   UNL     1      27.763  12.911 -12.624  1.00  0.00     0.000 C 
BRANCH   9  10
ATOM     10  C   UNL     1      26.265  13.166 -12.376  1.00  0.00     0.000 C 
BRANCH  10  11
ATOM     11  C   UNL     1      25.418  13.386 -13.643  1.00  0.00     0.000 C 
BRANCH  11  12
ATOM     12  C   UNL     1      25.155  14.872 -13.941  1.00  0.00     0.000 C 
BRANCH  12  13
ATOM     13  C   UNL     1      26.086  15.427 -15.033  1.00  0.00     0.006 C 
BRANCH  13  14
ATOM     14  C   UNL     1      25.875  16.929 -15.265  1.00  0.00     0.053 C 
BRANCH  14  15
ATOM     15  C   UNL     1      25.392  17.187 -16.659  1.00  0.00     0.041 C 
ATOM     16  O   UNL     1      25.872  18.139 -17.328  1.00  0.00    -0.550 OA
ATOM     17  O   UNL     1      24.398  16.388 -17.212  1.00  0.00    -0.550 OA
ENDBRANCH  14  15
ENDBRANCH  13  14
ENDBRANCH  12  13
ENDBRANCH  11  12
ENDBRANCH  10  11
ENDBRANCH   9  10
ENDBRANCH   8   9
ENDBRANCH   7   8
ENDBRANCH   6   7
ENDBRANCH   5   6
ENDBRANCH   4   5
ENDBRANCH   3   4
ENDBRANCH   2   3
ENDBRANCH   1   2
BRANCH   1  18
ATOM     18  C   UNL     1      25.253  18.538 -11.330  1.00  0.00     0.000 C 
BRANCH  18  19
ATOM     19  C   UNL     1      24.153  18.696 -12.402  1.00  0.00     0.000 C 
BRANCH  19  20
ATOM     20  C   UNL     1      22.723  18.495 -11.867  1.00  0.00     0.000 C 
BRANCH  20  21
ATOM     21  C   UNL     1      22.068  17.151 -12.238  1.00  0.00     0.000 C 
BRANCH  21  22
ATOM     22  C   UNL     1      22.620  15.925 -11.482  1.00  0.00     0.000 C 
BRANCH  22  23
ATOM     23  C   UNL     1      21.814  15.510 -10.234  1.00  0.00     0.000 C 
BRANCH  23  24
ATOM     24  C   UNL     1      22.538  15.722  -8.890  1.00  0.00    -0.000 C 
BRANCH  24  25
ATOM     25  C   UNL     1      22.707  17.195  -8.475  1.00  0.00    -0.000 C 
BRANCH  25  26
ATOM     26  C   UNL     1      21.616  17.662  -7.495  1.00  0.00    -0.000 C 
BRANCH  26  27
ATOM     27  C   UNL     1      20.430  18.332  -8.206  1.00  0.00    -0.000 C 
BRANCH  27  28
ATOM     28  C   UNL     1      19.136  18.276  -7.381  1.00  0.00    -0.000 C 
BRANCH  28  29
ATOM     29  C   UNL     1      19.391  18.722  -5.934  1.00  0.00    -0.000 C 
BRANCH  29  30
ATOM     30  C   UNL     1      19.136  20.227  -5.766  1.00  0.00    -0.000 C 
BRANCH  30  31
ATOM     31  C   UNL     1      18.398  20.836  -6.969  1.00  0.00    -0.003 C 
ATOM     32  C   UNL     1      19.180  21.970  -7.629  1.00  0.00     0.004 C 
ENDBRANCH  30  31
ENDBRANCH  29  30
ENDBRANCH  28  29
ENDBRANCH  27  28
ENDBRANCH  26  27
ENDBRANCH  25  26
ENDBRANCH  24  25
ENDBRANCH  23  24
ENDBRANCH  22  23
ENDBRANCH  21  22
ENDBRANCH  20  21
ENDBRANCH  19  20
ENDBRANCH  18  19
ENDBRANCH   1  18
TORSDOF 28
ENDMDL
MODEL 5
REMARK VINA RESULT:    -4.792      2.739      6.600
REMARK INTER + INTRA:         -18.382
REMARK INTER:                 -13.030
REMARK INTRA:                  -5.351
REMARK UNBOUND:                -5.745
REMARK SMILES CCCCCCCCCCCCCCCCCCCCCCCCCCCCCC(=O)[O-]
REMARK SMILES IDX 16 1 17 2 18 3 19 4 20 5 21 6 22 7 23 8 24 9 25 10 26 11
REMARK SMILES IDX 27 12 28 13 29 14 30 15 31 16 32 17 15 18 14 19 13 20 12 21
REMARK SMILES IDX 11 22 10 23 9 24 8 25 7 26 6 27 5 28 4 29 3 30 2 31 1 32
REMARK H PARENT
REMARK Flexibility Score: inf
ROOT
ATOM      1  C   UNL     1      29.009  14.494  -9.922  1.00  0.00     0.000 C 
ENDROOT
BRANCH   1   2
ATOM      2  C   UNL     1      28.720  13.060 -10.407  1.00  0.00     0.000 C 
BRANCH   2   3
ATOM      3  C   UNL     1      28.439  12.922 -11.914  1.00  0.00     0.000 C 
BRANCH   3   4
ATOM      4  C   UNL     1      26.939  12.936 -12.253  1.00  0.00     0.000 C 
BRANCH   4   5
ATOM      5  C   UNL     1      26.677  13.163 -13.751  1.00  0.00     0.000 C 
BRANCH   5   6
ATOM      6  C   UNL     1      25.282  13.743 -14.030  1.00  0.00     0.000 C 
BRANCH   6   7
ATOM      7  C   UNL     1      25.323  15.279 -14.059  1.00  0.00     0.000 C 
BRANCH   7   8
ATOM      8  C   UNL     1      24.728  15.870 -15.348  1.00  0.00     0.000 C 
BRANCH   8   9
ATOM      9  C   UNL     1      25.788  16.557 -16.226  1.00  0.00     0.000 C 
BRANCH   9  10
ATOM     10  C   UNL     1      26.915  17.210 -15.406  1.00  0.00     0.000 C 
BRANCH  10  11
ATOM     11  C   UNL     1      26.762  18.725 -15.170  1.00  0.00     0.000 C 
BRANCH  11  12
ATOM     12  C   UNL     1      25.632  19.352 -16.003  1.00  0.00     0.000 C 
BRANCH  12  13
ATOM     13  C   UNL     1      25.233  20.749 -15.495  1.00  0.00     0.006 C 
BRANCH  13  14
ATOM     14  C   UNL     1      24.009  20.701 -14.570  1.00  0.00     0.053 C 
BRANCH  14  15
ATOM     15  C   UNL     1      23.040  21.787 -14.917  1.00  0.00     0.041 C 
ATOM     16  O   UNL     1      22.549  21.851 -16.074  1.00  0.00    -0.550 OA
ATOM     17  O   UNL     1      22.691  22.742 -13.968  1.00  0.00    -0.550 OA
ENDBRANCH  14  15
ENDBRANCH  13  14
ENDBRANCH  12  13
ENDBRANCH  11  12
ENDBRANCH  10  11
ENDBRANCH   9  10
ENDBRANCH   8   9
ENDBRANCH   7   8
ENDBRANCH   6   7
ENDBRANCH   5   6
ENDBRANCH   4   5
ENDBRANCH   3   4
ENDBRANCH   2   3
ENDBRANCH   1   2
BRANCH   1  18
ATOM     18  C   UNL     1      28.187  14.886  -8.681  1.00  0.00     0.000 C 
BRANCH  18  19
ATOM     19  C   UNL     1      26.688  14.543  -8.822  1.00  0.00     0.000 C 
BRANCH  19  20
ATOM     20  C   UNL     1      25.810  15.736  -9.245  1.00  0.00     0.000 C 
BRANCH  20  21
ATOM     21  C   UNL     1      25.736  15.989 -10.763  1.00  0.00     0.000 C 
BRANCH  21  22
ATOM     22  C   UNL     1      26.492  17.241 -11.253  1.00  0.00     0.000 C 
BRANCH  22  23
ATOM     23  C   UNL     1      25.594  18.402 -11.727  1.00  0.00     0.000 C 
BRANCH  23  24
ATOM     24  C   UNL     1      24.102  18.259 -11.369  1.00  0.00    -0.000 C 
BRANCH  24  25
ATOM     25  C   UNL     1      23.188  17.895 -12.553  1.00  0.00    -0.000 C 
BRANCH  25  26
ATOM     26  C   UNL     1      22.148  16.821 -12.189  1.00  0.00    -0.000 C 
BRANCH  26  27
ATOM     27  C   UNL     1      21.792  16.826 -10.694  1.00  0.00    -0.000 C 
BRANCH  27  28
ATOM     28  C   UNL     1      22.103  15.488 -10.006  1.00  0.00    -0.000 C 
BRANCH  28  29
ATOM     29  C   UNL     1      22.639  14.466 -11.018  1.00  0.00    -0.000 C 
BRANCH  29  30
ATOM     30  C   UNL     1      22.410  13.029 -10.526  1.00  0.00    -0.000 C 
BRANCH  30  31
ATOM     31  C   UNL     1      23.598  12.492  -9.712  1.00  0.00    -0.003 C 
ATOM     32  C   UNL     1      23.487  12.812  -8.223  1.00  0.00     0.004 C 
ENDBRANCH  30  31
ENDBRANCH  29  30
ENDBRANCH  28  29
ENDBRANCH  27  28
ENDBRANCH  26  27
ENDBRANCH  25  26
ENDBRANCH  24  25
ENDBRANCH  23  24
ENDBRANCH  22  23
ENDBRANCH  21  22
ENDBRANCH  20  21
ENDBRANCH  19  20
ENDBRANCH  18  19
ENDBRANCH   1  18
TORSDOF 28
ENDMDL
MODEL 6
REMARK VINA RESULT:    -4.775      1.119      2.566
REMARK INTER + INTRA:         -18.335
REMARK INTER:                 -12.966
REMARK INTRA:                  -5.369
REMARK UNBOUND:                -5.745
REMARK SMILES CCCCCCCCCCCCCCCCCCCCCCCCCCCCCC(=O)[O-]
REMARK SMILES IDX 16 1 17 2 18 3 19 4 20 5 21 6 22 7 23 8 24 9 25 10 26 11
REMARK SMILES IDX 27 12 28 13 29 14 30 15 31 16 32 17 15 18 14 19 13 20 12 21
REMARK SMILES IDX 11 22 10 23 9 24 8 25 7 26 6 27 5 28 4 29 3 30 2 31 1 32
REMARK H PARENT
REMARK Flexibility Score: inf
ROOT
ATOM      1  C   UNL     1      27.129  13.007 -13.060  1.00  0.00     0.000 C 
ENDROOT
BRANCH   1   2
ATOM      2  C   UNL     1      27.468  12.619 -11.607  1.00  0.00     0.000 C 
BRANCH   2   3
ATOM      3  C   UNL     1      28.790  13.194 -11.066  1.00  0.00     0.000 C 
BRANCH   3   4
ATOM      4  C   UNL     1      28.692  14.683 -10.691  1.00  0.00     0.000 C 
BRANCH   4   5
ATOM      5  C   UNL     1      28.584  14.901  -9.173  1.00  0.00     0.000 C 
BRANCH   5   6
ATOM      6  C   UNL     1      27.253  14.397  -8.594  1.00  0.00     0.000 C 
BRANCH   6   7
ATOM      7  C   UNL     1      26.076  15.235  -9.115  1.00  0.00     0.000 C 
BRANCH   7   8
ATOM      8  C   UNL     1      24.811  14.398  -9.370  1.00  0.00     0.000 C 
BRANCH   8   9
ATOM      9  C   UNL     1      23.627  15.251  -9.857  1.00  0.00     0.000 C 
BRANCH   9  10
ATOM     10  C   UNL     1      22.655  15.631  -8.725  1.00  0.00     0.000 C 
BRANCH  10  11
ATOM     11  C   UNL     1      22.029  17.033  -8.840  1.00  0.00     0.000 C 
BRANCH  11  12
ATOM     12  C   UNL     1      22.105  17.835  -7.530  1.00  0.00     0.000 C 
BRANCH  12  13
ATOM     13  C   UNL     1      20.715  18.198  -6.980  1.00  0.00     0.006 C 
BRANCH  13  14
ATOM     14  C   UNL     1      20.177  19.504  -7.580  1.00  0.00     0.053 C 
BRANCH  14  15
ATOM     15  C   UNL     1      20.526  20.671  -6.709  1.00  0.00     0.041 C 
ATOM     16  O   UNL     1      20.471  21.841  -7.168  1.00  0.00    -0.550 OA
ATOM     17  O   UNL     1      20.931  20.465  -5.395  1.00  0.00    -0.550 OA
ENDBRANCH  14  15
ENDBRANCH  13  14
ENDBRANCH  12  13
ENDBRANCH  11  12
ENDBRANCH  10  11
ENDBRANCH   9  10
ENDBRANCH   8   9
ENDBRANCH   7   8
ENDBRANCH   6   7
ENDBRANCH   5   6
ENDBRANCH   4   5
ENDBRANCH   3   4
ENDBRANCH   2   3
ENDBRANCH   1   2
BRANCH   1  18
ATOM     18  C   UNL     1      25.642  13.354 -13.258  1.00  0.00     0.000 C 
BRANCH  18  19
ATOM     19  C   UNL     1      25.430  14.605 -14.136  1.00  0.00     0.000 C 
BRANCH  19  20
ATOM     20  C   UNL     1      26.375  15.774 -13.800  1.00  0.00     0.000 C 
BRANCH  20  21
ATOM     21  C   UNL     1      26.162  16.409 -12.412  1.00  0.00     0.000 C 
BRANCH  21  22
ATOM     22  C   UNL     1      26.788  17.808 -12.232  1.00  0.00     0.000 C 
BRANCH  22  23
ATOM     23  C   UNL     1      25.801  18.917 -11.817  1.00  0.00     0.000 C 
BRANCH  23  24
ATOM     24  C   UNL     1      24.452  18.415 -11.266  1.00  0.00    -0.000 C 
BRANCH  24  25
ATOM     25  C   UNL     1      23.216  18.911 -12.038  1.00  0.00    -0.000 C 
BRANCH  25  26
ATOM     26  C   UNL     1      22.240  17.773 -12.386  1.00  0.00    -0.000 C 
BRANCH  26  27
ATOM     27  C   UNL     1      22.755  16.880 -13.525  1.00  0.00    -0.000 C 
BRANCH  27  28
ATOM     28  C   UNL     1      22.574  17.522 -14.909  1.00  0.00    -0.000 C 
BRANCH  28  29
ATOM     29  C   UNL     1      23.924  17.660 -15.627  1.00  0.00    -0.000 C 
BRANCH  29  30
ATOM     30  C   UNL     1      24.590  19.005 -15.301  1.00  0.00    -0.000 C 
BRANCH  30  31
ATOM     31  C   UNL     1      26.048  19.070 -15.783  1.00  0.00    -0.003 C 
ATOM     32  C   UNL     1      26.405  17.936 -16.742  1.00  0.00     0.004 C 
ENDBRANCH  30  31
ENDBRANCH  29  30
ENDBRANCH  28  29
ENDBRANCH  27  28
ENDBRANCH  26  27
ENDBRANCH  25  26
ENDBRANCH  24  25
ENDBRANCH  23  24
ENDBRANCH  22  23
ENDBRANCH  21  22
ENDBRANCH  20  21
ENDBRANCH  19  20
ENDBRANCH  18  19
ENDBRANCH   1  18
TORSDOF 28
ENDMDL
MODEL 7
REMARK VINA RESULT:    -4.707      1.732      4.113
REMARK INTER + INTRA:         -18.157
REMARK INTER:                 -13.097
REMARK INTRA:                  -5.060
REMARK UNBOUND:                -5.745
REMARK SMILES CCCCCCCCCCCCCCCCCCCCCCCCCCCCCC(=O)[O-]
REMARK SMILES IDX 16 1 17 2 18 3 19 4 20 5 21 6 22 7 23 8 24 9 25 10 26 11
REMARK SMILES IDX 27 12 28 13 29 14 30 15 31 16 32 17 15 18 14 19 13 20 12 21
REMARK SMILES IDX 11 22 10 23 9 24 8 25 7 26 6 27 5 28 4 29 3 30 2 31 1 32
REMARK H PARENT
REMARK Flexibility Score: inf
ROOT
ATOM      1  C   UNL     1      27.771  14.711  -9.874  1.00  0.00     0.000 C 
ENDROOT
BRANCH   1   2
ATOM      2  C   UNL     1      27.508  14.494  -8.371  1.00  0.00     0.000 C 
BRANCH   2   3
ATOM      3  C   UNL     1      28.066  13.182  -7.791  1.00  0.00     0.000 C 
BRANCH   3   4
ATOM      4  C   UNL     1      27.249  11.944  -8.200  1.00  0.00     0.000 C 
BRANCH   4   5
ATOM      5  C   UNL     1      25.737  12.148  -8.004  1.00  0.00     0.000 C 
BRANCH   5   6
ATOM      6  C   UNL     1      24.936  11.936  -9.298  1.00  0.00     0.000 C 
BRANCH   6   7
ATOM      7  C   UNL     1      24.286  13.249  -9.761  1.00  0.00     0.000 C 
BRANCH   7   8
ATOM      8  C   UNL     1      23.099  13.673  -8.882  1.00  0.00     0.000 C 
BRANCH   8   9
ATOM      9  C   UNL     1      22.732  15.157  -9.060  1.00  0.00     0.000 C 
BRANCH   9  10
ATOM     10  C   UNL     1      23.963  16.058  -9.271  1.00  0.00     0.000 C 
BRANCH  10  11
ATOM     11  C   UNL     1      23.802  17.512  -8.791  1.00  0.00     0.000 C 
BRANCH  11  12
ATOM     12  C   UNL     1      22.445  17.776  -8.118  1.00  0.00     0.000 C 
BRANCH  12  13
ATOM     13  C   UNL     1      22.588  18.502  -6.769  1.00  0.00     0.006 C 
BRANCH  13  14
ATOM     14  C   UNL     1      21.254  18.595  -6.016  1.00  0.00     0.053 C 
BRANCH  14  15
ATOM     15  C   UNL     1      20.232  19.319  -6.836  1.00  0.00     0.041 C 
ATOM     16  O   UNL     1      19.240  18.700  -7.301  1.00  0.00    -0.550 OA
ATOM     17  O   UNL     1      20.385  20.675  -7.104  1.00  0.00    -0.550 OA
ENDBRANCH  14  15
ENDBRANCH  13  14
ENDBRANCH  12  13
ENDBRANCH  11  12
ENDBRANCH  10  11
ENDBRANCH   9  10
ENDBRANCH   8   9
ENDBRANCH   7   8
ENDBRANCH   6   7
ENDBRANCH   5   6
ENDBRANCH   4   5
ENDBRANCH   3   4
ENDBRANCH   2   3
ENDBRANCH   1   2
BRANCH   1  18
ATOM     18  C   UNL     1      29.118  14.130 -10.340  1.00  0.00     0.000 C 
BRANCH  18  19
ATOM     19  C   UNL     1      28.957  13.012 -11.393  1.00  0.00     0.000 C 
BRANCH  19  20
ATOM     20  C   UNL     1      27.495  12.727 -11.785  1.00  0.00     0.000 C 
BRANCH  20  21
ATOM     21  C   UNL     1      27.210  12.734 -13.298  1.00  0.00     0.000 C 
BRANCH  21  22
ATOM     22  C   UNL     1      25.886  13.410 -13.710  1.00  0.00     0.000 C 
BRANCH  22  23
ATOM     23  C   UNL     1      25.962  14.940 -13.889  1.00  0.00     0.000 C 
BRANCH  23  24
ATOM     24  C   UNL     1      25.671  15.760 -12.617  1.00  0.00    -0.000 C 
BRANCH  24  25
ATOM     25  C   UNL     1      26.683  16.883 -12.328  1.00  0.00    -0.000 C 
BRANCH  25  26
ATOM     26  C   UNL     1      26.017  18.147 -11.757  1.00  0.00    -0.000 C 
BRANCH  26  27
ATOM     27  C   UNL     1      25.035  18.795 -12.744  1.00  0.00    -0.000 C 
BRANCH  27  28
ATOM     28  C   UNL     1      23.982  19.669 -12.046  1.00  0.00    -0.000 C 
BRANCH  28  29
ATOM     29  C   UNL     1      22.567  19.136 -12.310  1.00  0.00    -0.000 C 
BRANCH  29  30
ATOM     30  C   UNL     1      22.565  17.604 -12.425  1.00  0.00    -0.000 C 
BRANCH  30  31
ATOM     31  C   UNL     1      21.723  17.106 -13.612  1.00  0.00    -0.003 C 
ATOM     32  C   UNL     1      21.946  17.926 -14.880  1.00  0.00     0.004 C 
ENDBRANCH  30  31
ENDBRANCH  29  30
ENDBRANCH  28  29
ENDBRANCH  27  28
ENDBRANCH  26  27
ENDBRANCH  25  26
ENDBRANCH  24  25
ENDBRANCH  23  24
ENDBRANCH  22  23
ENDBRANCH  21  22
ENDBRANCH  20  21
ENDBRANCH  19  20
ENDBRANCH  18  19
ENDBRANCH   1  18
TORSDOF 28
ENDMDL
MODEL 8
REMARK VINA RESULT:    -4.681      2.955      6.608
REMARK INTER + INTRA:         -18.088
REMARK INTER:                 -13.038
REMARK INTRA:                  -5.050
REMARK UNBOUND:                -5.745
REMARK SMILES CCCCCCCCCCCCCCCCCCCCCCCCCCCCCC(=O)[O-]
REMARK SMILES IDX 16 1 17 2 18 3 19 4 20 5 21 6 22 7 23 8 24 9 25 10 26 11
REMARK SMILES IDX 27 12 28 13 29 14 30 15 31 16 32 17 15 18 14 19 13 20 12 21
REMARK SMILES IDX 11 22 10 23 9 24 8 25 7 26 6 27 5 28 4 29 3 30 2 31 1 32
REMARK H PARENT
REMARK Flexibility Score: inf
ROOT
ATOM      1  C   UNL     1      28.223  15.037 -10.231  1.00  0.00     0.000 C 
ENDROOT
BRANCH   1   2
ATOM      2  C   UNL     1      28.957  13.733 -10.599  1.00  0.00     0.000 C 
BRANCH   2   3
ATOM      3  C   UNL     1      28.237  12.843 -11.628  1.00  0.00     0.000 C 
BRANCH   3   4
ATOM      4  C   UNL     1      26.987  13.507 -12.232  1.00  0.00     0.000 C 
BRANCH   4   5
ATOM      5  C   UNL     1      26.870  13.270 -13.747  1.00  0.00     0.000 C 
BRANCH   5   6
ATOM      6  C   UNL     1      25.677  14.009 -14.373  1.00  0.00     0.000 C 
BRANCH   6   7
ATOM      7  C   UNL     1      26.145  15.254 -15.141  1.00  0.00     0.000 C 
BRANCH   7   8
ATOM      8  C   UNL     1      24.984  16.172 -15.559  1.00  0.00     0.000 C 
BRANCH   8   9
ATOM      9  C   UNL     1      25.432  17.627 -15.782  1.00  0.00     0.000 C 
BRANCH   9  10
ATOM     10  C   UNL     1      24.431  18.656 -15.226  1.00  0.00     0.000 C 
BRANCH  10  11
ATOM     11  C   UNL     1      22.954  18.389 -15.573  1.00  0.00     0.000 C 
BRANCH  11  12
ATOM     12  C   UNL     1      22.431  19.287 -16.706  1.00  0.00     0.000 C 
BRANCH  12  13
ATOM     13  C   UNL     1      23.326  20.516 -16.945  1.00  0.00     0.006 C 
BRANCH  13  14
ATOM     14  C   UNL     1      22.653  21.819 -16.491  1.00  0.00     0.053 C 
BRANCH  14  15
ATOM     15  C   UNL     1      23.673  22.894 -16.277  1.00  0.00     0.041 C 
ATOM     16  O   UNL     1      24.048  23.186 -15.112  1.00  0.00    -0.550 OA
ATOM     17  O   UNL     1      24.195  23.587 -17.364  1.00  0.00    -0.550 OA
ENDBRANCH  14  15
ENDBRANCH  13  14
ENDBRANCH  12  13
ENDBRANCH  11  12
ENDBRANCH  10  11
ENDBRANCH   9  10
ENDBRANCH   8   9
ENDBRANCH   7   8
ENDBRANCH   6   7
ENDBRANCH   5   6
ENDBRANCH   4   5
ENDBRANCH   3   4
ENDBRANCH   2   3
ENDBRANCH   1   2
BRANCH   1  18
ATOM     18  C   UNL     1      27.514  14.963  -8.866  1.00  0.00     0.000 C 
BRANCH  18  19
ATOM     19  C   UNL     1      27.534  13.546  -8.256  1.00  0.00     0.000 C 
BRANCH  19  20
ATOM     20  C   UNL     1      26.181  12.814  -8.326  1.00  0.00     0.000 C 
BRANCH  20  21
ATOM     21  C   UNL     1      25.081  13.546  -9.118  1.00  0.00     0.000 C 
BRANCH  21  22
ATOM     22  C   UNL     1      23.706  13.607  -8.421  1.00  0.00     0.000 C 
BRANCH  22  23
ATOM     23  C   UNL     1      22.629  14.416  -9.172  1.00  0.00     0.000 C 
BRANCH  23  24
ATOM     24  C   UNL     1      22.171  15.706  -8.463  1.00  0.00    -0.000 C 
BRANCH  24  25
ATOM     25  C   UNL     1      21.703  16.828  -9.408  1.00  0.00    -0.000 C 
BRANCH  25  26
ATOM     26  C   UNL     1      21.522  16.344 -10.857  1.00  0.00    -0.000 C 
BRANCH  26  27
ATOM     27  C   UNL     1      22.410  17.108 -11.851  1.00  0.00    -0.000 C 
BRANCH  27  28
ATOM     28  C   UNL     1      23.583  16.263 -12.370  1.00  0.00    -0.000 C 
BRANCH  28  29
ATOM     29  C   UNL     1      24.781  16.346 -11.413  1.00  0.00    -0.000 C 
BRANCH  29  30
ATOM     30  C   UNL     1      25.011  17.789 -10.939  1.00  0.00    -0.000 C 
BRANCH  30  31
ATOM     31  C   UNL     1      25.896  18.591 -11.907  1.00  0.00    -0.003 C 
ATOM     32  C   UNL     1      27.114  17.803 -12.384  1.00  0.00     0.004 C 
ENDBRANCH  30  31
ENDBRANCH  29  30
ENDBRANCH  28  29
ENDBRANCH  27  28
ENDBRANCH  26  27
ENDBRANCH  25  26
ENDBRANCH  24  25
ENDBRANCH  23  24
ENDBRANCH  22  23
ENDBRANCH  21  22
ENDBRANCH  20  21
ENDBRANCH  19  20
ENDBRANCH  18  19
ENDBRANCH   1  18
TORSDOF 28
ENDMDL
MODEL 9
REMARK VINA RESULT:    -4.657      1.367      3.527
REMARK INTER + INTRA:         -18.024
REMARK INTER:                 -12.989
REMARK INTRA:                  -5.035
REMARK UNBOUND:                -5.745
REMARK SMILES CCCCCCCCCCCCCCCCCCCCCCCCCCCCCC(=O)[O-]
REMARK SMILES IDX 16 1 17 2 18 3 19 4 20 5 21 6 22 7 23 8 24 9 25 10 26 11
REMARK SMILES IDX 27 12 28 13 29 14 30 15 31 16 32 17 15 18 14 19 13 20 12 21
REMARK SMILES IDX 11 22 10 23 9 24 8 25 7 26 6 27 5 28 4 29 3 30 2 31 1 32
REMARK H PARENT
REMARK Flexibility Score: inf
ROOT
ATOM      1  C   UNL     1      28.139  12.689 -10.377  1.00  0.00     0.000 C 
ENDROOT
BRANCH   1   2
ATOM      2  C   UNL     1      28.981  13.956 -10.624  1.00  0.00     0.000 C 
BRANCH   2   3
ATOM      3  C   UNL     1      28.566  15.190  -9.801  1.00  0.00     0.000 C 
BRANCH   3   4
ATOM      4  C   UNL     1      27.505  14.875  -8.732  1.00  0.00     0.000 C 
BRANCH   4   5
ATOM      5  C   UNL     1      26.172  15.593  -8.999  1.00  0.00     0.000 C 
BRANCH   5   6
ATOM      6  C   UNL     1      24.996  14.619  -9.172  1.00  0.00     0.000 C 
BRANCH   6   7
ATOM      7  C   UNL     1      23.654  15.365  -9.128  1.00  0.00     0.000 C 
BRANCH   7   8
ATOM      8  C   UNL     1      22.810  15.155 -10.397  1.00  0.00     0.000 C 
BRANCH   8   9
ATOM      9  C   UNL     1      21.866  16.336 -10.679  1.00  0.00     0.000 C 
BRANCH   9  10
ATOM     10  C   UNL     1      21.995  17.469  -9.644  1.00  0.00     0.000 C 
BRANCH  10  11
ATOM     11  C   UNL     1      20.791  17.634  -8.698  1.00  0.00     0.000 C 
BRANCH  11  12
ATOM     12  C   UNL     1      21.202  17.928  -7.246  1.00  0.00     0.000 C 
BRANCH  12  13
ATOM     13  C   UNL     1      20.103  18.666  -6.461  1.00  0.00     0.006 C 
BRANCH  13  14
ATOM     14  C   UNL     1      20.685  19.625  -5.414  1.00  0.00     0.053 C 
BRANCH  14  15
ATOM     15  C   UNL     1      21.206  20.868  -6.066  1.00  0.00     0.041 C 
ATOM     16  O   UNL     1      20.492  21.496  -6.890  1.00  0.00    -0.550 OA
ATOM     17  O   UNL     1      22.488  21.323  -5.777  1.00  0.00    -0.550 OA
ENDBRANCH  14  15
ENDBRANCH  13  14
ENDBRANCH  12  13
ENDBRANCH  11  12
ENDBRANCH  10  11
ENDBRANCH   9  10
ENDBRANCH   8   9
ENDBRANCH   7   8
ENDBRANCH   6   7
ENDBRANCH   5   6
ENDBRANCH   4   5
ENDBRANCH   3   4
ENDBRANCH   2   3
ENDBRANCH   1   2
BRANCH   1  18
ATOM     18  C   UNL     1      26.979  12.534 -11.378  1.00  0.00     0.000 C 
BRANCH  18  19
ATOM     19  C   UNL     1      27.347  13.007 -12.800  1.00  0.00     0.000 C 
BRANCH  19  20
ATOM     20  C   UNL     1      26.246  13.836 -13.489  1.00  0.00     0.000 C 
BRANCH  20  21
ATOM     21  C   UNL     1      25.805  15.100 -12.727  1.00  0.00     0.000 C 
BRANCH  21  22
ATOM     22  C   UNL     1      26.728  16.324 -12.905  1.00  0.00     0.000 C 
BRANCH  22  23
ATOM     23  C   UNL     1      26.551  17.434 -11.850  1.00  0.00     0.000 C 
BRANCH  23  24
ATOM     24  C   UNL     1      25.093  17.871 -11.602  1.00  0.00    -0.000 C 
BRANCH  24  25
ATOM     25  C   UNL     1      24.804  19.353 -11.902  1.00  0.00    -0.000 C 
BRANCH  25  26
ATOM     26  C   UNL     1      23.412  19.570 -12.520  1.00  0.00    -0.000 C 
BRANCH  26  27
ATOM     27  C   UNL     1      23.391  19.316 -14.035  1.00  0.00    -0.000 C 
BRANCH  27  28
ATOM     28  C   UNL     1      24.658  19.823 -14.739  1.00  0.00    -0.000 C 
BRANCH  28  29
ATOM     29  C   UNL     1      25.383  18.674 -15.455  1.00  0.00    -0.000 C 
BRANCH  29  30
ATOM     30  C   UNL     1      24.479  17.438 -15.573  1.00  0.00    -0.000 C 
BRANCH  30  31
ATOM     31  C   UNL     1      24.601  16.750 -16.942  1.00  0.00    -0.003 C 
ATOM     32  C   UNL     1      23.827  17.476 -18.039  1.00  0.00     0.004 C 
ENDBRANCH  30  31
ENDBRANCH  29  30
ENDBRANCH  28  29
ENDBRANCH  27  28
ENDBRANCH  26  27
ENDBRANCH  25  26
ENDBRANCH  24  25
ENDBRANCH  23  24
ENDBRANCH  22  23
ENDBRANCH  21  22
ENDBRANCH  20  21
ENDBRANCH  19  20
ENDBRANCH  18  19
ENDBRANCH   1  18
TORSDOF 28
ENDMDL
