MODEL 1
REMARK VINA RESULT:    41.625      0.000      0.000
REMARK INTER + INTRA:          52.239
REMARK INTER:                  50.141
REMARK INTRA:                   2.097
REMARK UNBOUND:                 2.097
REMARK SMILES O=c1c(O)c(-c2ccc(O)cc2O)oc2cc(O)cc(O)c12
REMARK SMILES IDX 5 1 3 2 2 3 1 4 22 5 20 6 19 7 17 8 16 9 15 10 14 11 6 12
REMARK SMILES IDX 8 13 7 14 9 15 11 16 12 17 10 18 13 20 4 22 21 24 18 26
REMARK H PARENT 10 19 13 21 4 23 21 25 18 27
REMARK Flexibility Score: inf
ROOT
ATOM      1  C   UNL     1      22.986  14.316   3.047  1.00  0.00     0.184 A 
ATOM      2  C   UNL     1      23.993  14.085   2.096  1.00  0.00     0.208 A 
ATOM      3  C   UNL     1      25.334  14.080   2.509  1.00  0.00     0.238 A 
ATOM      4  O   UNL     1      26.234  13.928   1.641  1.00  0.00    -0.285 OA
ATOM      5  C   UNL     1      25.651  14.285   3.873  1.00  0.00     0.111 A 
ATOM      6  C   UNL     1      26.972  14.261   4.412  1.00  0.00     0.134 A 
ATOM      7  C   UNL     1      27.179  14.604   5.754  1.00  0.00     0.093 A 
ATOM      8  C   UNL     1      26.104  14.906   6.593  1.00  0.00     0.123 A 
ATOM      9  C   UNL     1      24.805  14.875   6.091  1.00  0.00     0.094 A 
ATOM     10  C   UNL     1      24.570  14.573   4.748  1.00  0.00     0.146 A 
ATOM     11  O   UNL     1      23.318  14.566   4.309  1.00  0.00    -0.451 OA
ENDROOT
BRANCH   1  12
ATOM     12  C   UNL     1      21.550  14.312   2.684  1.00  0.00     0.063 A 
ATOM     13  C   UNL     1      19.218  13.994   3.306  1.00  0.00     0.047 A 
ATOM     14  C   UNL     1      20.575  13.972   3.638  1.00  0.00     0.020 A 
ATOM     15  C   UNL     1      18.816  14.367   2.018  1.00  0.00     0.119 A 
ATOM     16  C   UNL     1      19.777  14.720   1.066  1.00  0.00     0.093 A 
ATOM     17  C   UNL     1      21.140  14.698   1.391  1.00  0.00     0.130 A 
BRANCH  15  18
ATOM     18  O   UNL     1      17.465  14.392   1.675  1.00  0.00    -0.508 OA
ATOM     19  H   UNL     1      16.744  14.155   2.347  1.00  0.00     0.293 HD
ENDBRANCH  15  18
BRANCH  17  20
ATOM     20  O   UNL     1      22.089  15.047   0.429  1.00  0.00    -0.507 OA
ATOM     21  H   UNL     1      22.215  16.006   0.129  1.00  0.00     0.293 HD
ENDBRANCH  17  20
ENDBRANCH   1  12
BRANCH   2  22
ATOM     22  O   UNL     1      23.657  13.898   0.751  1.00  0.00    -0.502 OA
ATOM     23  H   UNL     1      22.814  13.416   0.463  1.00  0.00     0.293 HD
ENDBRANCH   2  22
BRANCH   6  24
ATOM     24  O   UNL     1      28.105  13.883   3.684  1.00  0.00    -0.507 OA
ATOM     25  H   UNL     1      28.197  13.962   2.682  1.00  0.00     0.293 HD
ENDBRANCH   6  24
BRANCH   8  26
ATOM     26  O   UNL     1      26.316  15.232   7.931  1.00  0.00    -0.508 OA
ATOM     27  H   UNL     1      27.194  15.025   8.393  1.00  0.00     0.293 HD
ENDBRANCH   8  26
TORSDOF 6
ENDMDL
