MODEL 1
REMARK VINA RESULT:    -2.675      0.000      0.000
REMARK INTER + INTRA:          -5.834
REMARK INTER:                  -4.238
REMARK INTRA:                  -1.596
REMARK UNBOUND:                -1.596
REMARK SMILES CCCCCCCCCCCC(=O)[O-]
REMARK SMILES IDX 7 1 8 2 9 3 10 4 11 5 12 6 13 7 14 8 6 9 5 10 4 11 3 12 2 13
REMARK SMILES IDX 1 14
REMARK H PARENT
REMARK Flexibility Score: inf
ROOT
ATOM      1  C   UNL     1     147.353 165.940 152.702  1.00  0.00     0.000 C 
ENDROOT
BRANCH   1   2
ATOM      2  C   UNL     1     147.262 165.745 154.225  1.00  0.00     0.000 C 
BRANCH   2   3
ATOM      3  C   UNL     1     145.875 165.267 154.681  1.00  0.00     0.000 C 
BRANCH   3   4
ATOM      4  C   UNL     1     145.991 164.305 155.869  1.00  0.00     0.006 C 
BRANCH   4   5
ATOM      5  C   UNL     1     147.255 163.445 155.759  1.00  0.00     0.053 C 
BRANCH   5   6
ATOM      6  C   UNL     1     146.996 162.067 156.277  1.00  0.00     0.041 C 
ATOM      7  O   UNL     1     146.226 161.893 157.258  1.00  0.00    -0.550 OA
ATOM      8  O   UNL     1     147.568 160.969 155.648  1.00  0.00    -0.550 OA
ENDBRANCH   5   6
ENDBRANCH   4   5
ENDBRANCH   3   4
ENDBRANCH   2   3
ENDBRANCH   1   2
BRANCH   1   9
ATOM      9  C   UNL     1     146.121 165.390 151.962  1.00  0.00     0.000 C 
BRANCH   9  10
ATOM     10  C   UNL     1     146.451 164.173 151.078  1.00  0.00    -0.000 C 
BRANCH  10  11
ATOM     11  C   UNL     1     146.050 162.806 151.670  1.00  0.00    -0.000 C 
BRANCH  11  12
ATOM     12  C   UNL     1     147.203 162.001 152.302  1.00  0.00    -0.000 C 
BRANCH  12  13
ATOM     13  C   UNL     1     148.612 162.451 151.879  1.00  0.00    -0.003 C 
ATOM     14  C   UNL     1     149.559 162.635 153.064  1.00  0.00     0.004 C 
ENDBRANCH  12  13
ENDBRANCH  11  12
ENDBRANCH  10  11
ENDBRANCH   9  10
ENDBRANCH   1   9
TORSDOF 10
ENDMDL
MODEL 2
REMARK VINA RESULT:    -2.562      1.875      3.915
REMARK INTER + INTRA:          -5.655
REMARK INTER:                  -4.263
REMARK INTRA:                  -1.392
REMARK UNBOUND:                -1.596
REMARK SMILES CCCCCCCCCCCC(=O)[O-]
REMARK SMILES IDX 7 1 8 2 9 3 10 4 11 5 12 6 13 7 14 8 6 9 5 10 4 11 3 12 2 13
REMARK SMILES IDX 1 14
REMARK H PARENT
REMARK Flexibility Score: inf
ROOT
ATOM      1  C   UNL     1     145.934 165.263 152.822  1.00  0.00     0.000 C 
ENDROOT
BRANCH   1   2
ATOM      2  C   UNL     1     146.352 164.972 151.371  1.00  0.00     0.000 C 
BRANCH   2   3
ATOM      3  C   UNL     1     146.227 163.485 151.004  1.00  0.00     0.000 C 
BRANCH   3   4
ATOM      4  C   UNL     1     146.375 162.600 152.247  1.00  0.00     0.006 C 
BRANCH   4   5
ATOM      5  C   UNL     1     147.127 161.307 151.914  1.00  0.00     0.053 C 
BRANCH   5   6
ATOM      6  C   UNL     1     148.557 161.409 152.341  1.00  0.00     0.041 C 
ATOM      7  O   UNL     1     149.275 162.357 151.930  1.00  0.00    -0.550 OA
ATOM      8  O   UNL     1     149.083 160.483 153.233  1.00  0.00    -0.550 OA
ENDBRANCH   5   6
ENDBRANCH   4   5
ENDBRANCH   3   4
ENDBRANCH   2   3
ENDBRANCH   1   2
BRANCH   1   9
ATOM      9  C   UNL     1     146.997 166.065 153.592  1.00  0.00     0.000 C 
BRANCH   9  10
ATOM     10  C   UNL     1     148.399 165.433 153.509  1.00  0.00    -0.000 C 
BRANCH  10  11
ATOM     11  C   UNL     1     149.023 165.044 154.865  1.00  0.00    -0.000 C 
BRANCH  11  12
ATOM     12  C   UNL     1     148.804 163.578 155.291  1.00  0.00    -0.000 C 
BRANCH  12  13
ATOM     13  C   UNL     1     147.388 163.258 155.800  1.00  0.00    -0.003 C 
ATOM     14  C   UNL     1     147.120 161.758 155.913  1.00  0.00     0.004 C 
ENDBRANCH  12  13
ENDBRANCH  11  12
ENDBRANCH  10  11
ENDBRANCH   9  10
ENDBRANCH   1   9
TORSDOF 10
ENDMDL
MODEL 3
REMARK VINA RESULT:    -2.548      1.394      2.055
REMARK INTER + INTRA:          -5.633
REMARK INTER:                  -4.090
REMARK INTRA:                  -1.543
REMARK UNBOUND:                -1.596
REMARK SMILES CCCCCCCCCCCC(=O)[O-]
REMARK SMILES IDX 7 1 8 2 9 3 10 4 11 5 12 6 13 7 14 8 6 9 5 10 4 11 3 12 2 13
REMARK SMILES IDX 1 14
REMARK H PARENT
REMARK Flexibility Score: inf
ROOT
ATOM      1  C   UNL     1     148.479 165.759 153.029  1.00  0.00     0.000 C 
ENDROOT
BRANCH   1   2
ATOM      2  C   UNL     1     149.420 165.196 154.107  1.00  0.00     0.000 C 
BRANCH   2   3
ATOM      3  C   UNL     1     148.666 164.499 155.249  1.00  0.00     0.000 C 
BRANCH   3   4
ATOM      4  C   UNL     1     148.978 162.998 155.275  1.00  0.00     0.006 C 
BRANCH   4   5
ATOM      5  C   UNL     1     147.715 162.179 155.563  1.00  0.00     0.053 C 
BRANCH   5   6
ATOM      6  C   UNL     1     148.018 160.716 155.513  1.00  0.00     0.041 C 
ATOM      7  O   UNL     1     147.380 159.911 156.242  1.00  0.00    -0.550 OA
ATOM      8  O   UNL     1     148.970 160.233 154.625  1.00  0.00    -0.550 OA
ENDBRANCH   5   6
ENDBRANCH   4   5
ENDBRANCH   3   4
ENDBRANCH   2   3
ENDBRANCH   1   2
BRANCH   1   9
ATOM      9  C   UNL     1     147.035 165.925 153.535  1.00  0.00     0.000 C 
BRANCH   9  10
ATOM     10  C   UNL     1     146.029 165.051 152.764  1.00  0.00    -0.000 C 
BRANCH  10  11
ATOM     11  C   UNL     1     146.600 164.336 151.522  1.00  0.00    -0.000 C 
BRANCH  11  12
ATOM     12  C   UNL     1     146.210 162.850 151.385  1.00  0.00    -0.000 C 
BRANCH  12  13
ATOM     13  C   UNL     1     147.247 161.857 151.936  1.00  0.00    -0.003 C 
ATOM     14  C   UNL     1     148.684 162.243 151.590  1.00  0.00     0.004 C 
ENDBRANCH  12  13
ENDBRANCH  11  12
ENDBRANCH  10  11
ENDBRANCH   9  10
ENDBRANCH   1   9
TORSDOF 10
ENDMDL
MODEL 4
REMARK VINA RESULT:    -2.540      2.487      4.197
REMARK INTER + INTRA:          -5.621
REMARK INTER:                  -4.284
REMARK INTRA:                  -1.338
REMARK UNBOUND:                -1.596
REMARK SMILES CCCCCCCCCCCC(=O)[O-]
REMARK SMILES IDX 7 1 8 2 9 3 10 4 11 5 12 6 13 7 14 8 6 9 5 10 4 11 3 12 2 13
REMARK SMILES IDX 1 14
REMARK H PARENT
REMARK Flexibility Score: inf
ROOT
ATOM      1  C   UNL     1     146.398 165.179 156.007  1.00  0.00     0.000 C 
ENDROOT
BRANCH   1   2
ATOM      2  C   UNL     1     146.583 166.229 154.899  1.00  0.00     0.000 C 
BRANCH   2   3
ATOM      3  C   UNL     1     147.634 165.815 153.858  1.00  0.00     0.000 C 
BRANCH   3   4
ATOM      4  C   UNL     1     147.106 166.025 152.434  1.00  0.00     0.006 C 
BRANCH   4   5
ATOM      5  C   UNL     1     145.925 165.093 152.142  1.00  0.00     0.053 C 
BRANCH   5   6
ATOM      6  C   UNL     1     146.218 164.234 150.953  1.00  0.00     0.041 C 
ATOM      7  O   UNL     1     146.515 164.761 149.849  1.00  0.00    -0.550 OA
ATOM      8  O   UNL     1     146.210 162.851 151.076  1.00  0.00    -0.550 OA
ENDBRANCH   5   6
ENDBRANCH   4   5
ENDBRANCH   3   4
ENDBRANCH   2   3
ENDBRANCH   1   2
BRANCH   1   9
ATOM      9  C   UNL     1     145.886 163.833 155.464  1.00  0.00     0.000 C 
BRANCH   9  10
ATOM     10  C   UNL     1     146.386 162.630 156.286  1.00  0.00    -0.000 C 
BRANCH  10  11
ATOM     11  C   UNL     1     147.621 161.909 155.706  1.00  0.00    -0.000 C 
BRANCH  11  12
ATOM     12  C   UNL     1     147.632 161.761 154.172  1.00  0.00    -0.000 C 
BRANCH  12  13
ATOM     13  C   UNL     1     148.852 162.383 153.471  1.00  0.00    -0.003 C 
ATOM     14  C   UNL     1     149.872 162.959 154.453  1.00  0.00     0.004 C 
ENDBRANCH  12  13
ENDBRANCH  11  12
ENDBRANCH  10  11
ENDBRANCH   9  10
ENDBRANCH   1   9
TORSDOF 10
ENDMDL
MODEL 5
REMARK VINA RESULT:    -2.539      1.412      3.131
REMARK INTER + INTRA:          -5.619
REMARK INTER:                  -4.122
REMARK INTRA:                  -1.497
REMARK UNBOUND:                -1.596
REMARK SMILES CCCCCCCCCCCC(=O)[O-]
REMARK SMILES IDX 7 1 8 2 9 3 10 4 11 5 12 6 13 7 14 8 6 9 5 10 4 11 3 12 2 13
REMARK SMILES IDX 1 14
REMARK H PARENT
REMARK Flexibility Score: inf
ROOT
ATOM      1  C   UNL     1     148.108 163.939 150.395  1.00  0.00     0.000 C 
ENDROOT
BRANCH   1   2
ATOM      2  C   UNL     1     148.222 162.670 151.257  1.00  0.00     0.000 C 
BRANCH   2   3
ATOM      3  C   UNL     1     146.857 162.040 151.571  1.00  0.00     0.000 C 
BRANCH   3   4
ATOM      4  C   UNL     1     146.713 161.766 153.073  1.00  0.00     0.006 C 
BRANCH   4   5
ATOM      5  C   UNL     1     148.064 161.400 153.696  1.00  0.00     0.053 C 
BRANCH   5   6
ATOM      6  C   UNL     1     147.892 161.025 155.134  1.00  0.00     0.041 C 
ATOM      7  O   UNL     1     147.182 161.734 155.893  1.00  0.00    -0.550 OA
ATOM      8  O   UNL     1     148.477 159.864 155.624  1.00  0.00    -0.550 OA
ENDBRANCH   5   6
ENDBRANCH   4   5
ENDBRANCH   3   4
ENDBRANCH   2   3
ENDBRANCH   1   2
BRANCH   1   9
ATOM      9  C   UNL     1     146.660 164.447 150.284  1.00  0.00     0.000 C 
BRANCH   9  10
ATOM     10  C   UNL     1     146.412 165.726 151.107  1.00  0.00    -0.000 C 
BRANCH  10  11
ATOM     11  C   UNL     1     146.215 165.502 152.621  1.00  0.00    -0.000 C 
BRANCH  11  12
ATOM     12  C   UNL     1     147.386 165.969 153.509  1.00  0.00    -0.000 C 
BRANCH  12  13
ATOM     13  C   UNL     1     147.694 165.053 154.706  1.00  0.00    -0.003 C 
ATOM     14  C   UNL     1     149.184 164.743 154.849  1.00  0.00     0.004 C 
ENDBRANCH  12  13
ENDBRANCH  11  12
ENDBRANCH  10  11
ENDBRANCH   9  10
ENDBRANCH   1   9
TORSDOF 10
ENDMDL
MODEL 6
REMARK VINA RESULT:    -2.536      3.461      5.665
REMARK INTER + INTRA:          -5.615
REMARK INTER:                  -4.299
REMARK INTRA:                  -1.316
REMARK UNBOUND:                -1.596
REMARK SMILES CCCCCCCCCCCC(=O)[O-]
REMARK SMILES IDX 7 1 8 2 9 3 10 4 11 5 12 6 13 7 14 8 6 9 5 10 4 11 3 12 2 13
REMARK SMILES IDX 1 14
REMARK H PARENT
REMARK Flexibility Score: inf
ROOT
ATOM      1  C   UNL     1     148.266 161.426 152.418  1.00  0.00     0.000 C 
ENDROOT
BRANCH   1   2
ATOM      2  C   UNL     1     146.753 161.393 152.149  1.00  0.00     0.000 C 
BRANCH   2   3
ATOM      3  C   UNL     1     146.254 162.643 151.407  1.00  0.00     0.000 C 
BRANCH   3   4
ATOM      4  C   UNL     1     147.432 163.491 150.911  1.00  0.00     0.006 C 
BRANCH   4   5
ATOM      5  C   UNL     1     147.101 164.986 150.982  1.00  0.00     0.053 C 
BRANCH   5   6
ATOM      6  C   UNL     1     146.925 165.549 149.608  1.00  0.00     0.041 C 
ATOM      7  O   UNL     1     147.314 164.899 148.602  1.00  0.00    -0.550 OA
ATOM      8  O   UNL     1     146.287 166.770 149.433  1.00  0.00    -0.550 OA
ENDBRANCH   5   6
ENDBRANCH   4   5
ENDBRANCH   3   4
ENDBRANCH   2   3
ENDBRANCH   1   2
BRANCH   1   9
ATOM      9  C   UNL     1     148.596 161.509 153.919  1.00  0.00     0.000 C 
BRANCH   9  10
ATOM     10  C   UNL     1     148.621 162.956 154.446  1.00  0.00    -0.000 C 
BRANCH  10  11
ATOM     11  C   UNL     1     147.610 163.261 155.570  1.00  0.00    -0.000 C 
BRANCH  11  12
ATOM     12  C   UNL     1     146.213 163.706 155.092  1.00  0.00    -0.000 C 
BRANCH  12  13
ATOM     13  C   UNL     1     146.142 165.145 154.553  1.00  0.00    -0.003 C 
ATOM     14  C   UNL     1     146.802 166.162 155.483  1.00  0.00     0.004 C 
ENDBRANCH  12  13
ENDBRANCH  11  12
ENDBRANCH  10  11
ENDBRANCH   9  10
ENDBRANCH   1   9
TORSDOF 10
ENDMDL
MODEL 7
REMARK VINA RESULT:    -2.505      1.412      3.086
REMARK INTER + INTRA:          -5.565
REMARK INTER:                  -3.862
REMARK INTRA:                  -1.703
REMARK UNBOUND:                -1.596
REMARK SMILES CCCCCCCCCCCC(=O)[O-]
REMARK SMILES IDX 7 1 8 2 9 3 10 4 11 5 12 6 13 7 14 8 6 9 5 10 4 11 3 12 2 13
REMARK SMILES IDX 1 14
REMARK H PARENT
REMARK Flexibility Score: inf
ROOT
ATOM      1  C   UNL     1     146.811 164.050 150.763  1.00  0.00     0.000 C 
ENDROOT
BRANCH   1   2
ATOM      2  C   UNL     1     146.233 162.775 151.400  1.00  0.00     0.000 C 
BRANCH   2   3
ATOM      3  C   UNL     1     147.322 161.837 151.943  1.00  0.00     0.000 C 
BRANCH   3   4
ATOM      4  C   UNL     1     147.285 161.785 153.475  1.00  0.00     0.006 C 
BRANCH   4   5
ATOM      5  C   UNL     1     146.173 162.681 154.029  1.00  0.00     0.053 C 
BRANCH   5   6
ATOM      6  C   UNL     1     146.476 163.081 155.438  1.00  0.00     0.041 C 
ATOM      7  O   UNL     1     147.195 162.346 156.164  1.00  0.00    -0.550 OA
ATOM      8  O   UNL     1     146.005 164.290 155.934  1.00  0.00    -0.550 OA
ENDBRANCH   5   6
ENDBRANCH   4   5
ENDBRANCH   3   4
ENDBRANCH   2   3
ENDBRANCH   1   2
BRANCH   1   9
ATOM      9  C   UNL     1     146.095 165.325 151.242  1.00  0.00     0.000 C 
BRANCH   9  10
ATOM     10  C   UNL     1     146.788 165.981 152.451  1.00  0.00    -0.000 C 
BRANCH  10  11
ATOM     11  C   UNL     1     148.310 165.744 152.540  1.00  0.00    -0.000 C 
BRANCH  11  12
ATOM     12  C   UNL     1     148.851 165.488 153.960  1.00  0.00    -0.000 C 
BRANCH  12  13
ATOM     13  C   UNL     1     149.875 164.344 154.065  1.00  0.00    -0.003 C 
ATOM     14  C   UNL     1     150.341 163.835 152.702  1.00  0.00     0.004 C 
ENDBRANCH  12  13
ENDBRANCH  11  12
ENDBRANCH  10  11
ENDBRANCH   9  10
ENDBRANCH   1   9
TORSDOF 10
ENDMDL
MODEL 8
REMARK VINA RESULT:    -2.503      6.616      8.653
REMARK INTER + INTRA:          -5.563
REMARK INTER:                  -4.044
REMARK INTRA:                  -1.519
REMARK UNBOUND:                -1.596
REMARK SMILES CCCCCCCCCCCC(=O)[O-]
REMARK SMILES IDX 7 1 8 2 9 3 10 4 11 5 12 6 13 7 14 8 6 9 5 10 4 11 3 12 2 13
REMARK SMILES IDX 1 14
REMARK H PARENT
REMARK Flexibility Score: inf
ROOT
ATOM      1  C   UNL     1     145.917 159.760 160.994  1.00  0.00     0.000 C 
ENDROOT
BRANCH   1   2
ATOM      2  C   UNL     1     147.115 159.527 161.929  1.00  0.00     0.000 C 
BRANCH   2   3
ATOM      3  C   UNL     1     147.442 158.037 162.116  1.00  0.00     0.000 C 
BRANCH   3   4
ATOM      4  C   UNL     1     146.504 157.162 161.278  1.00  0.00     0.006 C 
BRANCH   4   5
ATOM      5  C   UNL     1     146.731 155.675 161.571  1.00  0.00     0.053 C 
BRANCH   5   6
ATOM      6  C   UNL     1     147.729 155.100 160.616  1.00  0.00     0.041 C 
ATOM      7  O   UNL     1     147.365 154.716 159.474  1.00  0.00    -0.550 OA
ATOM      8  O   UNL     1     149.071 155.034 160.970  1.00  0.00    -0.550 OA
ENDBRANCH   5   6
ENDBRANCH   4   5
ENDBRANCH   3   4
ENDBRANCH   2   3
ENDBRANCH   1   2
BRANCH   1   9
ATOM      9  C   UNL     1     146.086 161.016 160.121  1.00  0.00     0.000 C 
BRANCH   9  10
ATOM     10  C   UNL     1     145.875 160.733 158.622  1.00  0.00    -0.000 C 
BRANCH  10  11
ATOM     11  C   UNL     1     146.292 159.322 158.157  1.00  0.00    -0.000 C 
BRANCH  11  12
ATOM     12  C   UNL     1     147.768 159.182 157.732  1.00  0.00    -0.000 C 
BRANCH  12  13
ATOM     13  C   UNL     1     148.504 157.976 158.340  1.00  0.00    -0.003 C 
ATOM     14  C   UNL     1     149.668 158.382 159.243  1.00  0.00     0.004 C 
ENDBRANCH  12  13
ENDBRANCH  11  12
ENDBRANCH  10  11
ENDBRANCH   9  10
ENDBRANCH   1   9
TORSDOF 10
ENDMDL
MODEL 9
REMARK VINA RESULT:    -2.488      2.127      4.201
REMARK INTER + INTRA:          -5.538
REMARK INTER:                  -3.927
REMARK INTRA:                  -1.611
REMARK UNBOUND:                -1.596
REMARK SMILES CCCCCCCCCCCC(=O)[O-]
REMARK SMILES IDX 7 1 8 2 9 3 10 4 11 5 12 6 13 7 14 8 6 9 5 10 4 11 3 12 2 13
REMARK SMILES IDX 1 14
REMARK H PARENT
REMARK Flexibility Score: inf
ROOT
ATOM      1  C   UNL     1     146.488 163.720 151.032  1.00  0.00     0.000 C 
ENDROOT
BRANCH   1   2
ATOM      2  C   UNL     1     145.875 162.925 152.197  1.00  0.00     0.000 C 
BRANCH   2   3
ATOM      3  C   UNL     1     146.649 161.634 152.507  1.00  0.00     0.000 C 
BRANCH   3   4
ATOM      4  C   UNL     1     147.933 161.553 151.674  1.00  0.00     0.006 C 
BRANCH   4   5
ATOM      5  C   UNL     1     149.154 161.316 152.569  1.00  0.00     0.053 C 
BRANCH   5   6
ATOM      6  C   UNL     1     149.986 162.555 152.659  1.00  0.00     0.041 C 
ATOM      7  O   UNL     1     150.731 162.748 153.655  1.00  0.00    -0.550 OA
ATOM      8  O   UNL     1     149.977 163.475 151.618  1.00  0.00    -0.550 OA
ENDBRANCH   5   6
ENDBRANCH   4   5
ENDBRANCH   3   4
ENDBRANCH   2   3
ENDBRANCH   1   2
BRANCH   1   9
ATOM      9  C   UNL     1     146.865 165.157 151.433  1.00  0.00     0.000 C 
BRANCH   9  10
ATOM     10  C   UNL     1     146.618 165.444 152.926  1.00  0.00    -0.000 C 
BRANCH  10  11
ATOM     11  C   UNL     1     147.892 165.661 153.769  1.00  0.00    -0.000 C 
BRANCH  11  12
ATOM     12  C   UNL     1     147.797 165.186 155.233  1.00  0.00    -0.000 C 
BRANCH  12  13
ATOM     13  C   UNL     1     147.767 163.659 155.417  1.00  0.00    -0.003 C 
ATOM     14  C   UNL     1     146.451 163.155 156.008  1.00  0.00     0.004 C 
ENDBRANCH  12  13
ENDBRANCH  11  12
ENDBRANCH  10  11
ENDBRANCH   9  10
ENDBRANCH   1   9
TORSDOF 10
ENDMDL
