MODEL 1
REMARK VINA RESULT:    -2.157      0.000      0.000
REMARK INTER + INTRA:          -6.299
REMARK INTER:                  -4.048
REMARK INTRA:                  -2.251
REMARK UNBOUND:                -2.251
REMARK SMILES CCCCCCCCC=CCCCCCCCC(=O)[O-]
REMARK SMILES IDX 10 1 9 2 11 3 12 4 13 5 14 6 15 7 16 8 17 9 18 10 19 11
REMARK SMILES IDX 20 12 8 13 7 14 6 15 5 16 4 17 3 18 2 19 1 20
REMARK H PARENT
REMARK Flexibility Score: inf
ROOT
ATOM      1  C   UNL     1      28.594  16.612   3.033  1.00  0.00    -0.031 C 
ATOM      2  C   UNL     1      28.025  17.644   2.382  1.00  0.00    -0.031 C 
ENDROOT
BRANCH   1   3
ATOM      3  C   UNL     1      27.959  15.255   3.208  1.00  0.00     0.027 C 
BRANCH   3   4
ATOM      4  C   UNL     1      28.841  14.131   2.644  1.00  0.00     0.004 C 
BRANCH   4   5
ATOM      5  C   UNL     1      30.274  14.612   2.357  1.00  0.00     0.000 C 
BRANCH   5   6
ATOM      6  C   UNL     1      30.851  14.013   1.063  1.00  0.00     0.000 C 
BRANCH   6   7
ATOM      7  C   UNL     1      31.557  15.061   0.188  1.00  0.00     0.000 C 
BRANCH   7   8
ATOM      8  C   UNL     1      30.756  16.370   0.147  1.00  0.00     0.006 C 
BRANCH   8   9
ATOM      9  C   UNL     1      30.819  17.047  -1.229  1.00  0.00     0.053 C 
BRANCH   9  10
ATOM     10  C   UNL     1      32.230  17.234  -1.693  1.00  0.00     0.041 C 
ATOM     11  O   UNL     1      32.618  16.710  -2.770  1.00  0.00    -0.550 OA
ATOM     12  O   UNL     1      33.109  18.017  -0.954  1.00  0.00    -0.550 OA
ENDBRANCH   9  10
ENDBRANCH   8   9
ENDBRANCH   7   8
ENDBRANCH   6   7
ENDBRANCH   5   6
ENDBRANCH   4   5
ENDBRANCH   3   4
ENDBRANCH   1   3
BRANCH   2  13
ATOM     13  C   UNL     1      26.630  17.629   1.809  1.00  0.00     0.027 C 
BRANCH  13  14
ATOM     14  C   UNL     1      26.677  17.618   0.274  1.00  0.00     0.004 C 
BRANCH  14  15
ATOM     15  C   UNL     1      27.372  16.368  -0.289  1.00  0.00     0.000 C 
BRANCH  15  16
ATOM     16  C   UNL     1      26.558  15.083  -0.059  1.00  0.00     0.000 C 
BRANCH  16  17
ATOM     17  C   UNL     1      27.359  13.820  -0.419  1.00  0.00    -0.000 C 
BRANCH  17  18
ATOM     18  C   UNL     1      26.869  13.139  -1.717  1.00  0.00    -0.000 C 
BRANCH  18  19
ATOM     19  C   UNL     1      27.697  11.904  -2.110  1.00  0.00    -0.003 C 
ATOM     20  C   UNL     1      27.624  11.592  -3.603  1.00  0.00     0.004 C 
ENDBRANCH  18  19
ENDBRANCH  17  18
ENDBRANCH  16  17
ENDBRANCH  15  16
ENDBRANCH  14  15
ENDBRANCH  13  14
ENDBRANCH   2  13
TORSDOF 15
ENDMDL
MODEL 2
REMARK VINA RESULT:    -1.549      2.758      5.491
REMARK INTER + INTRA:          -5.158
REMARK INTER:                  -3.203
REMARK INTRA:                  -1.955
REMARK UNBOUND:                -2.251
REMARK SMILES CCCCCCCCC=CCCCCCCCC(=O)[O-]
REMARK SMILES IDX 10 1 9 2 11 3 12 4 13 5 14 6 15 7 16 8 17 9 18 10 19 11
REMARK SMILES IDX 20 12 8 13 7 14 6 15 5 16 4 17 3 18 2 19 1 20
REMARK H PARENT
REMARK Flexibility Score: inf
ROOT
ATOM      1  C   UNL     1      28.414  14.818   2.612  1.00  0.00    -0.031 C 
ATOM      2  C   UNL     1      29.723  15.076   2.437  1.00  0.00    -0.031 C 
ENDROOT
BRANCH   1   3
ATOM      3  C   UNL     1      27.770  13.469   2.407  1.00  0.00     0.027 C 
BRANCH   3   4
ATOM      4  C   UNL     1      26.738  13.493   1.269  1.00  0.00     0.004 C 
BRANCH   4   5
ATOM      5  C   UNL     1      27.375  13.869  -0.080  1.00  0.00     0.000 C 
BRANCH   5   6
ATOM      6  C   UNL     1      26.975  15.277  -0.551  1.00  0.00     0.000 C 
BRANCH   6   7
ATOM      7  C   UNL     1      28.185  16.205  -0.743  1.00  0.00     0.000 C 
BRANCH   7   8
ATOM      8  C   UNL     1      28.024  17.490   0.083  1.00  0.00     0.006 C 
BRANCH   8   9
ATOM      9  C   UNL     1      26.556  17.788   0.416  1.00  0.00     0.053 C 
BRANCH   9  10
ATOM     10  C   UNL     1      26.397  18.318   1.807  1.00  0.00     0.041 C 
ATOM     11  O   UNL     1      25.429  19.071   2.092  1.00  0.00    -0.550 OA
ATOM     12  O   UNL     1      27.299  17.952   2.800  1.00  0.00    -0.550 OA
ENDBRANCH   9  10
ENDBRANCH   8   9
ENDBRANCH   7   8
ENDBRANCH   6   7
ENDBRANCH   5   6
ENDBRANCH   4   5
ENDBRANCH   3   4
ENDBRANCH   1   3
BRANCH   2  13
ATOM     13  C   UNL     1      30.729  14.078   1.922  1.00  0.00     0.027 C 
BRANCH  13  14
ATOM     14  C   UNL     1      31.265  14.509   0.549  1.00  0.00     0.004 C 
BRANCH  14  15
ATOM     15  C   UNL     1      31.310  16.036   0.384  1.00  0.00     0.000 C 
BRANCH  15  16
ATOM     16  C   UNL     1      31.627  16.469  -1.058  1.00  0.00     0.000 C 
BRANCH  16  17
ATOM     17  C   UNL     1      32.606  17.654  -1.103  1.00  0.00    -0.000 C 
BRANCH  17  18
ATOM     18  C   UNL     1      33.088  17.991  -2.533  1.00  0.00    -0.000 C 
BRANCH  18  19
ATOM     19  C   UNL     1      32.758  16.898  -3.563  1.00  0.00    -0.003 C 
ATOM     20  C   UNL     1      34.004  16.217  -4.125  1.00  0.00     0.004 C 
ENDBRANCH  18  19
ENDBRANCH  17  18
ENDBRANCH  16  17
ENDBRANCH  15  16
ENDBRANCH  14  15
ENDBRANCH  13  14
ENDBRANCH   2  13
TORSDOF 15
ENDMDL
MODEL 3
REMARK VINA RESULT:    -1.321      3.078      6.554
REMARK INTER + INTRA:          -4.730
REMARK INTER:                  -3.110
REMARK INTRA:                  -1.620
REMARK UNBOUND:                -2.251
REMARK SMILES CCCCCCCCC=CCCCCCCCC(=O)[O-]
REMARK SMILES IDX 10 1 9 2 11 3 12 4 13 5 14 6 15 7 16 8 17 9 18 10 19 11
REMARK SMILES IDX 20 12 8 13 7 14 6 15 5 16 4 17 3 18 2 19 1 20
REMARK H PARENT
REMARK Flexibility Score: inf
ROOT
ATOM      1  C   UNL     1      30.813  14.284   1.565  1.00  0.00    -0.031 C 
ATOM      2  C   UNL     1      31.107  15.048   0.497  1.00  0.00    -0.031 C 
ENDROOT
BRANCH   1   3
ATOM      3  C   UNL     1      29.765  14.621   2.597  1.00  0.00     0.027 C 
BRANCH   3   4
ATOM      4  C   UNL     1      28.597  13.623   2.575  1.00  0.00     0.004 C 
BRANCH   4   5
ATOM      5  C   UNL     1      27.373  14.183   1.829  1.00  0.00     0.000 C 
BRANCH   5   6
ATOM      6  C   UNL     1      27.378  13.828   0.333  1.00  0.00     0.000 C 
BRANCH   6   7
ATOM      7  C   UNL     1      27.478  15.066  -0.571  1.00  0.00     0.000 C 
BRANCH   7   8
ATOM      8  C   UNL     1      26.532  16.175  -0.086  1.00  0.00     0.006 C 
BRANCH   8   9
ATOM      9  C   UNL     1      27.284  17.462   0.278  1.00  0.00     0.053 C 
BRANCH   9  10
ATOM     10  C   UNL     1      26.952  17.929   1.661  1.00  0.00     0.041 C 
ATOM     11  O   UNL     1      27.689  17.611   2.631  1.00  0.00    -0.550 OA
ATOM     12  O   UNL     1      25.847  18.743   1.876  1.00  0.00    -0.550 OA
ENDBRANCH   9  10
ENDBRANCH   8   9
ENDBRANCH   7   8
ENDBRANCH   6   7
ENDBRANCH   5   6
ENDBRANCH   4   5
ENDBRANCH   3   4
ENDBRANCH   1   3
BRANCH   2  13
ATOM     13  C   UNL     1      30.497  16.399   0.217  1.00  0.00     0.027 C 
BRANCH  13  14
ATOM     14  C   UNL     1      30.904  16.898  -1.176  1.00  0.00     0.004 C 
BRANCH  14  15
ATOM     15  C   UNL     1      32.427  17.022  -1.339  1.00  0.00     0.000 C 
BRANCH  15  16
ATOM     16  C   UNL     1      32.980  18.341  -0.772  1.00  0.00     0.000 C 
BRANCH  16  17
ATOM     17  C   UNL     1      34.364  18.683  -1.349  1.00  0.00    -0.000 C 
BRANCH  17  18
ATOM     18  C   UNL     1      34.998  19.937  -0.707  1.00  0.00    -0.000 C 
BRANCH  18  19
ATOM     19  C   UNL     1      36.532  19.878  -0.631  1.00  0.00    -0.003 C 
ATOM     20  C   UNL     1      37.125  18.755  -1.480  1.00  0.00     0.004 C 
ENDBRANCH  18  19
ENDBRANCH  17  18
ENDBRANCH  16  17
ENDBRANCH  15  16
ENDBRANCH  14  15
ENDBRANCH  13  14
ENDBRANCH   2  13
TORSDOF 15
ENDMDL
MODEL 4
REMARK VINA RESULT:    -1.270      2.861      6.478
REMARK INTER + INTRA:          -4.634
REMARK INTER:                  -3.857
REMARK INTRA:                  -0.777
REMARK UNBOUND:                -2.251
REMARK SMILES CCCCCCCCC=CCCCCCCCC(=O)[O-]
REMARK SMILES IDX 10 1 9 2 11 3 12 4 13 5 14 6 15 7 16 8 17 9 18 10 19 11
REMARK SMILES IDX 20 12 8 13 7 14 6 15 5 16 4 17 3 18 2 19 1 20
REMARK H PARENT
REMARK Flexibility Score: inf
ROOT
ATOM      1  C   UNL     1      29.911  14.570   2.172  1.00  0.00    -0.031 C 
ATOM      2  C   UNL     1      30.713  14.242   1.142  1.00  0.00    -0.031 C 
ENDROOT
BRANCH   1   3
ATOM      3  C   UNL     1      29.670  15.978   2.657  1.00  0.00     0.027 C 
BRANCH   3   4
ATOM      4  C   UNL     1      28.208  16.199   3.075  1.00  0.00     0.004 C 
BRANCH   4   5
ATOM      5  C   UNL     1      27.719  17.617   2.735  1.00  0.00     0.000 C 
BRANCH   5   6
ATOM      6  C   UNL     1      26.653  17.626   1.626  1.00  0.00     0.000 C 
BRANCH   6   7
ATOM      7  C   UNL     1      27.263  17.678   0.217  1.00  0.00     0.000 C 
BRANCH   7   8
ATOM      8  C   UNL     1      27.605  16.267  -0.284  1.00  0.00     0.006 C 
BRANCH   8   9
ATOM      9  C   UNL     1      26.464  15.270  -0.039  1.00  0.00     0.053 C 
BRANCH   9  10
ATOM     10  C   UNL     1      26.973  13.876   0.152  1.00  0.00     0.041 C 
ATOM     11  O   UNL     1      26.999  13.363   1.302  1.00  0.00    -0.550 OA
ATOM     12  O   UNL     1      27.390  13.129  -0.943  1.00  0.00    -0.550 OA
ENDBRANCH   9  10
ENDBRANCH   8   9
ENDBRANCH   7   8
ENDBRANCH   6   7
ENDBRANCH   5   6
ENDBRANCH   4   5
ENDBRANCH   3   4
ENDBRANCH   1   3
BRANCH   2  13
ATOM     13  C   UNL     1      31.564  15.224   0.375  1.00  0.00     0.027 C 
BRANCH  13  14
ATOM     14  C   UNL     1      30.739  16.454  -0.028  1.00  0.00     0.004 C 
BRANCH  14  15
ATOM     15  C   UNL     1      31.124  16.998  -1.412  1.00  0.00     0.000 C 
BRANCH  15  16
ATOM     16  C   UNL     1      32.645  17.166  -1.581  1.00  0.00     0.000 C 
BRANCH  16  17
ATOM     17  C   UNL     1      33.176  18.401  -0.833  1.00  0.00    -0.000 C 
BRANCH  17  18
ATOM     18  C   UNL     1      34.467  18.980  -1.454  1.00  0.00    -0.000 C 
BRANCH  18  19
ATOM     19  C   UNL     1      35.253  19.890  -0.495  1.00  0.00    -0.003 C 
ATOM     20  C   UNL     1      36.761  19.841  -0.735  1.00  0.00     0.004 C 
ENDBRANCH  18  19
ENDBRANCH  17  18
ENDBRANCH  16  17
ENDBRANCH  15  16
ENDBRANCH  14  15
ENDBRANCH  13  14
ENDBRANCH   2  13
TORSDOF 15
ENDMDL
MODEL 5
REMARK VINA RESULT:    -1.155      1.731      4.008
REMARK INTER + INTRA:          -4.419
REMARK INTER:                  -2.795
REMARK INTRA:                  -1.624
REMARK UNBOUND:                -2.251
REMARK SMILES CCCCCCCCC=CCCCCCCCC(=O)[O-]
REMARK SMILES IDX 10 1 9 2 11 3 12 4 13 5 14 6 15 7 16 8 17 9 18 10 19 11
REMARK SMILES IDX 20 12 8 13 7 14 6 15 5 16 4 17 3 18 2 19 1 20
REMARK H PARENT
REMARK Flexibility Score: inf
ROOT
ATOM      1  C   UNL     1      27.949  13.948   2.536  1.00  0.00    -0.031 C 
ATOM      2  C   UNL     1      27.093  13.616   1.552  1.00  0.00    -0.031 C 
ENDROOT
BRANCH   1   3
ATOM      3  C   UNL     1      29.219  14.738   2.338  1.00  0.00     0.027 C 
BRANCH   3   4
ATOM      4  C   UNL     1      30.457  13.829   2.286  1.00  0.00     0.004 C 
BRANCH   4   5
ATOM      5  C   UNL     1      31.350  14.140   1.072  1.00  0.00     0.000 C 
BRANCH   5   6
ATOM      6  C   UNL     1      31.114  15.552   0.510  1.00  0.00     0.000 C 
BRANCH   6   7
ATOM      7  C   UNL     1      31.910  15.819  -0.777  1.00  0.00     0.000 C 
BRANCH   7   8
ATOM      8  C   UNL     1      31.855  17.306  -1.155  1.00  0.00     0.006 C 
BRANCH   8   9
ATOM      9  C   UNL     1      33.006  17.712  -2.086  1.00  0.00     0.053 C 
BRANCH   9  10
ATOM     10  C   UNL     1      32.890  17.063  -3.430  1.00  0.00     0.041 C 
ATOM     11  O   UNL     1      33.918  16.638  -4.020  1.00  0.00    -0.550 OA
ATOM     12  O   UNL     1      31.642  16.895  -4.019  1.00  0.00    -0.550 OA
ENDBRANCH   9  10
ENDBRANCH   8   9
ENDBRANCH   7   8
ENDBRANCH   6   7
ENDBRANCH   5   6
ENDBRANCH   4   5
ENDBRANCH   3   4
ENDBRANCH   1   3
BRANCH   2  13
ATOM     13  C   UNL     1      27.320  13.904   0.089  1.00  0.00     0.027 C 
BRANCH  13  14
ATOM     14  C   UNL     1      26.872  15.331  -0.257  1.00  0.00     0.004 C 
BRANCH  14  15
ATOM     15  C   UNL     1      28.049  16.251  -0.614  1.00  0.00     0.000 C 
BRANCH  15  16
ATOM     16  C   UNL     1      27.999  17.595   0.134  1.00  0.00     0.000 C 
BRANCH  16  17
ATOM     17  C   UNL     1      28.099  17.412   1.658  1.00  0.00    -0.000 C 
BRANCH  17  18
ATOM     18  C   UNL     1      26.823  17.855   2.408  1.00  0.00    -0.000 C 
BRANCH  18  19
ATOM     19  C   UNL     1      25.869  18.701   1.549  1.00  0.00    -0.003 C 
ATOM     20  C   UNL     1      24.650  19.193   2.325  1.00  0.00     0.004 C 
ENDBRANCH  18  19
ENDBRANCH  17  18
ENDBRANCH  16  17
ENDBRANCH  15  16
ENDBRANCH  14  15
ENDBRANCH  13  14
ENDBRANCH   2  13
TORSDOF 15
ENDMDL
MODEL 6
REMARK VINA RESULT:    -1.107      0.992      2.828
REMARK INTER + INTRA:          -4.329
REMARK INTER:                  -2.813
REMARK INTRA:                  -1.516
REMARK UNBOUND:                -2.251
REMARK SMILES CCCCCCCCC=CCCCCCCCC(=O)[O-]
REMARK SMILES IDX 10 1 9 2 11 3 12 4 13 5 14 6 15 7 16 8 17 9 18 10 19 11
REMARK SMILES IDX 20 12 8 13 7 14 6 15 5 16 4 17 3 18 2 19 1 20
REMARK H PARENT
REMARK Flexibility Score: inf
ROOT
ATOM      1  C   UNL     1      28.944  16.243   3.208  1.00  0.00    -0.031 C 
ATOM      2  C   UNL     1      29.633  15.212   2.683  1.00  0.00    -0.031 C 
ENDROOT
BRANCH   1   3
ATOM      3  C   UNL     1      27.504  16.563   2.889  1.00  0.00     0.027 C 
BRANCH   3   4
ATOM      4  C   UNL     1      27.348  17.970   2.292  1.00  0.00     0.004 C 
BRANCH   4   5
ATOM      5  C   UNL     1      26.658  17.941   0.917  1.00  0.00     0.000 C 
BRANCH   5   6
ATOM      6  C   UNL     1      27.509  17.242  -0.157  1.00  0.00     0.000 C 
BRANCH   6   7
ATOM      7  C   UNL     1      28.993  17.634  -0.086  1.00  0.00     0.000 C 
BRANCH   7   8
ATOM      8  C   UNL     1      29.847  16.704  -0.959  1.00  0.00     0.006 C 
BRANCH   8   9
ATOM      9  C   UNL     1      31.287  16.582  -0.444  1.00  0.00     0.053 C 
BRANCH   9  10
ATOM     10  C   UNL     1      32.277  17.135  -1.422  1.00  0.00     0.041 C 
ATOM     11  O   UNL     1      33.074  18.046  -1.072  1.00  0.00    -0.550 OA
ATOM     12  O   UNL     1      32.345  16.621  -2.711  1.00  0.00    -0.550 OA
ENDBRANCH   9  10
ENDBRANCH   8   9
ENDBRANCH   7   8
ENDBRANCH   6   7
ENDBRANCH   5   6
ENDBRANCH   4   5
ENDBRANCH   3   4
ENDBRANCH   1   3
BRANCH   2  13
ATOM     13  C   UNL     1      29.099  14.276   1.629  1.00  0.00     0.027 C 
BRANCH  13  14
ATOM     14  C   UNL     1      27.802  13.607   2.107  1.00  0.00     0.004 C 
BRANCH  14  15
ATOM     15  C   UNL     1      26.750  13.489   0.993  1.00  0.00     0.000 C 
BRANCH  15  16
ATOM     16  C   UNL     1      27.082  14.362  -0.230  1.00  0.00     0.000 C 
BRANCH  16  17
ATOM     17  C   UNL     1      26.827  13.622  -1.554  1.00  0.00    -0.000 C 
BRANCH  17  18
ATOM     18  C   UNL     1      27.526  12.245  -1.626  1.00  0.00    -0.000 C 
BRANCH  18  19
ATOM     19  C   UNL     1      27.546  11.641  -3.040  1.00  0.00    -0.003 C 
ATOM     20  C   UNL     1      27.304  10.133  -3.044  1.00  0.00     0.004 C 
ENDBRANCH  18  19
ENDBRANCH  17  18
ENDBRANCH  16  17
ENDBRANCH  15  16
ENDBRANCH  14  15
ENDBRANCH  13  14
ENDBRANCH   2  13
TORSDOF 15
ENDMDL
MODEL 7
REMARK VINA RESULT:    -1.037      2.666      5.470
REMARK INTER + INTRA:          -4.197
REMARK INTER:                  -2.669
REMARK INTRA:                  -1.528
REMARK UNBOUND:                -2.251
REMARK SMILES CCCCCCCCC=CCCCCCCCC(=O)[O-]
REMARK SMILES IDX 10 1 9 2 11 3 12 4 13 5 14 6 15 7 16 8 17 9 18 10 19 11
REMARK SMILES IDX 20 12 8 13 7 14 6 15 5 16 4 17 3 18 2 19 1 20
REMARK H PARENT
REMARK Flexibility Score: inf
ROOT
ATOM      1  C   UNL     1      29.073  15.269   3.325  1.00  0.00    -0.031 C 
ATOM      2  C   UNL     1      29.535  14.214   2.628  1.00  0.00    -0.031 C 
ENDROOT
BRANCH   1   3
ATOM      3  C   UNL     1      28.852  16.646   2.751  1.00  0.00     0.027 C 
BRANCH   3   4
ATOM      4  C   UNL     1      27.499  17.236   3.177  1.00  0.00     0.004 C 
BRANCH   4   5
ATOM      5  C   UNL     1      27.030  18.350   2.226  1.00  0.00     0.000 C 
BRANCH   5   6
ATOM      6  C   UNL     1      26.579  17.810   0.858  1.00  0.00     0.000 C 
BRANCH   6   7
ATOM      7  C   UNL     1      27.759  17.441  -0.053  1.00  0.00     0.000 C 
BRANCH   7   8
ATOM      8  C   UNL     1      27.564  16.045  -0.663  1.00  0.00     0.006 C 
BRANCH   8   9
ATOM      9  C   UNL     1      26.494  15.231   0.077  1.00  0.00     0.053 C 
BRANCH   9  10
ATOM     10  C   UNL     1      26.847  13.778   0.144  1.00  0.00     0.041 C 
ATOM     11  O   UNL     1      27.286  13.184  -0.876  1.00  0.00    -0.550 OA
ATOM     12  O   UNL     1      26.724  13.085   1.342  1.00  0.00    -0.550 OA
ENDBRANCH   9  10
ENDBRANCH   8   9
ENDBRANCH   7   8
ENDBRANCH   6   7
ENDBRANCH   5   6
ENDBRANCH   4   5
ENDBRANCH   3   4
ENDBRANCH   1   3
BRANCH   2  13
ATOM     13  C   UNL     1      29.989  14.272   1.190  1.00  0.00     0.027 C 
BRANCH  13  14
ATOM     14  C   UNL     1      31.516  14.410   1.110  1.00  0.00     0.004 C 
BRANCH  14  15
ATOM     15  C   UNL     1      31.965  15.399   0.023  1.00  0.00     0.000 C 
BRANCH  15  16
ATOM     16  C   UNL     1      30.906  16.475  -0.275  1.00  0.00     0.000 C 
BRANCH  16  17
ATOM     17  C   UNL     1      31.268  17.315  -1.511  1.00  0.00    -0.000 C 
BRANCH  17  18
ATOM     18  C   UNL     1      32.768  17.678  -1.582  1.00  0.00    -0.000 C 
BRANCH  18  19
ATOM     19  C   UNL     1      33.429  17.297  -2.917  1.00  0.00    -0.003 C 
ATOM     20  C   UNL     1      32.445  16.681  -3.910  1.00  0.00     0.004 C 
ENDBRANCH  18  19
ENDBRANCH  17  18
ENDBRANCH  16  17
ENDBRANCH  15  16
ENDBRANCH  14  15
ENDBRANCH  13  14
ENDBRANCH   2  13
TORSDOF 15
ENDMDL
MODEL 8
REMARK VINA RESULT:    -0.902      2.622      5.505
REMARK INTER + INTRA:          -3.943
REMARK INTER:                  -2.332
REMARK INTRA:                  -1.611
REMARK UNBOUND:                -2.251
REMARK SMILES CCCCCCCCC=CCCCCCCCC(=O)[O-]
REMARK SMILES IDX 10 1 9 2 11 3 12 4 13 5 14 6 15 7 16 8 17 9 18 10 19 11
REMARK SMILES IDX 20 12 8 13 7 14 6 15 5 16 4 17 3 18 2 19 1 20
REMARK H PARENT
REMARK Flexibility Score: inf
ROOT
ATOM      1  C   UNL     1      30.720  13.869   1.349  1.00  0.00    -0.031 C 
ATOM      2  C   UNL     1      31.471  14.457   0.398  1.00  0.00    -0.031 C 
ENDROOT
BRANCH   1   3
ATOM      3  C   UNL     1      30.020  14.605   2.465  1.00  0.00     0.027 C 
BRANCH   3   4
ATOM      4  C   UNL     1      28.558  14.921   2.115  1.00  0.00     0.004 C 
BRANCH   4   5
ATOM      5  C   UNL     1      27.628  13.725   2.387  1.00  0.00     0.000 C 
BRANCH   5   6
ATOM      6  C   UNL     1      26.921  13.224   1.117  1.00  0.00     0.000 C 
BRANCH   6   7
ATOM      7  C   UNL     1      26.968  14.245  -0.031  1.00  0.00     0.000 C 
BRANCH   7   8
ATOM      8  C   UNL     1      26.830  13.546  -1.391  1.00  0.00     0.006 C 
BRANCH   8   9
ATOM      9  C   UNL     1      27.789  12.357  -1.534  1.00  0.00     0.053 C 
BRANCH   9  10
ATOM     10  C   UNL     1      27.504  11.556  -2.766  1.00  0.00     0.041 C 
ATOM     11  O   UNL     1      27.689  12.058  -3.906  1.00  0.00    -0.550 OA
ATOM     12  O   UNL     1      27.066  10.242  -2.657  1.00  0.00    -0.550 OA
ENDBRANCH   9  10
ENDBRANCH   8   9
ENDBRANCH   7   8
ENDBRANCH   6   7
ENDBRANCH   5   6
ENDBRANCH   4   5
ENDBRANCH   3   4
ENDBRANCH   1   3
BRANCH   2  13
ATOM     13  C   UNL     1      31.801  15.928   0.357  1.00  0.00     0.027 C 
BRANCH  13  14
ATOM     14  C   UNL     1      31.777  16.447  -1.088  1.00  0.00     0.004 C 
BRANCH  14  15
ATOM     15  C   UNL     1      30.567  17.350  -1.373  1.00  0.00     0.000 C 
BRANCH  15  16
ATOM     16  C   UNL     1      29.231  16.694  -0.980  1.00  0.00     0.000 C 
BRANCH  16  17
ATOM     17  C   UNL     1      28.567  17.405   0.212  1.00  0.00    -0.000 C 
BRANCH  17  18
ATOM     18  C   UNL     1      27.029  17.487   0.091  1.00  0.00    -0.000 C 
BRANCH  18  19
ATOM     19  C   UNL     1      26.358  18.200   1.276  1.00  0.00    -0.003 C 
ATOM     20  C   UNL     1      27.120  18.016   2.587  1.00  0.00     0.004 C 
ENDBRANCH  18  19
ENDBRANCH  17  18
ENDBRANCH  16  17
ENDBRANCH  15  16
ENDBRANCH  14  15
ENDBRANCH  13  14
ENDBRANCH   2  13
TORSDOF 15
ENDMDL
MODEL 9
REMARK VINA RESULT:    -0.887      2.551      5.605
REMARK INTER + INTRA:          -3.915
REMARK INTER:                  -2.431
REMARK INTRA:                  -1.483
REMARK UNBOUND:                -2.251
REMARK SMILES CCCCCCCCC=CCCCCCCCC(=O)[O-]
REMARK SMILES IDX 10 1 9 2 11 3 12 4 13 5 14 6 15 7 16 8 17 9 18 10 19 11
REMARK SMILES IDX 20 12 8 13 7 14 6 15 5 16 4 17 3 18 2 19 1 20
REMARK H PARENT
REMARK Flexibility Score: inf
ROOT
ATOM      1  C   UNL     1      28.327  17.140   2.833  1.00  0.00    -0.031 C 
ATOM      2  C   UNL     1      29.185  16.149   3.138  1.00  0.00    -0.031 C 
ENDROOT
BRANCH   1   3
ATOM      3  C   UNL     1      27.019  16.949   2.107  1.00  0.00     0.027 C 
BRANCH   3   4
ATOM      4  C   UNL     1      27.020  17.633   0.732  1.00  0.00     0.004 C 
BRANCH   4   5
ATOM      5  C   UNL     1      27.114  16.616  -0.419  1.00  0.00     0.000 C 
BRANCH   5   6
ATOM      6  C   UNL     1      27.385  15.186   0.076  1.00  0.00     0.000 C 
BRANCH   6   7
ATOM      7  C   UNL     1      26.422  14.155  -0.532  1.00  0.00     0.000 C 
BRANCH   7   8
ATOM      8  C   UNL     1      27.022  13.526  -1.798  1.00  0.00     0.006 C 
BRANCH   8   9
ATOM      9  C   UNL     1      27.411  12.056  -1.589  1.00  0.00     0.053 C 
BRANCH   9  10
ATOM     10  C   UNL     1      27.489  11.311  -2.885  1.00  0.00     0.041 C 
ATOM     11  O   UNL     1      27.763  11.921  -3.952  1.00  0.00    -0.550 OA
ATOM     12  O   UNL     1      27.292   9.936  -2.911  1.00  0.00    -0.550 OA
ENDBRANCH   9  10
ENDBRANCH   8   9
ENDBRANCH   7   8
ENDBRANCH   6   7
ENDBRANCH   5   6
ENDBRANCH   4   5
ENDBRANCH   3   4
ENDBRANCH   1   3
BRANCH   2  13
ATOM     13  C   UNL     1      29.012  14.710   2.721  1.00  0.00     0.027 C 
BRANCH  13  14
ATOM     14  C   UNL     1      30.373  14.068   2.416  1.00  0.00     0.004 C 
BRANCH  14  15
ATOM     15  C   UNL     1      30.641  13.938   0.909  1.00  0.00     0.000 C 
BRANCH  15  16
ATOM     16  C   UNL     1      31.532  15.068   0.365  1.00  0.00     0.000 C 
BRANCH  16  17
ATOM     17  C   UNL     1      30.766  16.396   0.235  1.00  0.00    -0.000 C 
BRANCH  17  18
ATOM     18  C   UNL     1      30.840  17.004  -1.184  1.00  0.00    -0.000 C 
BRANCH  18  19
ATOM     19  C   UNL     1      32.254  16.980  -1.787  1.00  0.00    -0.003 C 
ATOM     20  C   UNL     1      33.072  18.220  -1.432  1.00  0.00     0.004 C 
ENDBRANCH  18  19
ENDBRANCH  17  18
ENDBRANCH  16  17
ENDBRANCH  15  16
ENDBRANCH  14  15
ENDBRANCH  13  14
ENDBRANCH   2  13
TORSDOF 15
ENDMDL
