MODEL 1
REMARK VINA RESULT:    -3.099      0.000      0.000
REMARK INTER + INTRA:         -11.360
REMARK INTER:                  -7.084
REMARK INTRA:                  -4.276
REMARK UNBOUND:                -4.276
REMARK SMILES CCCCCCCCCCCCCCCCCCCCCCCC(=O)[O-]
REMARK SMILES IDX 13 1 14 2 15 3 16 4 17 5 18 6 19 7 20 8 21 9 22 10 23 11
REMARK SMILES IDX 24 12 25 13 26 14 12 15 11 16 10 17 9 18 8 19 7 20 6 21 5 22
REMARK SMILES IDX 4 23 3 24 2 25 1 26
REMARK H PARENT
REMARK Flexibility Score: inf
ROOT
ATOM      1  C   UNL     1      27.673  42.928   4.029  1.00  0.00     0.000 C 
ENDROOT
BRANCH   1   2
ATOM      2  C   UNL     1      26.234  43.470   3.970  1.00  0.00     0.000 C 
BRANCH   2   3
ATOM      3  C   UNL     1      25.760  44.050   5.314  1.00  0.00     0.000 C 
BRANCH   3   4
ATOM      4  C   UNL     1      24.609  43.240   5.932  1.00  0.00     0.000 C 
BRANCH   4   5
ATOM      5  C   UNL     1      23.938  42.300   4.915  1.00  0.00     0.000 C 
BRANCH   5   6
ATOM      6  C   UNL     1      24.087  40.816   5.292  1.00  0.00     0.000 C 
BRANCH   6   7
ATOM      7  C   UNL     1      24.406  39.926   4.079  1.00  0.00     0.000 C 
BRANCH   7   8
ATOM      8  C   UNL     1      24.187  40.646   2.735  1.00  0.00     0.000 C 
BRANCH   8   9
ATOM      9  C   UNL     1      25.307  40.452   1.693  1.00  0.00     0.000 C 
BRANCH   9  10
ATOM     10  C   UNL     1      24.914  39.645   0.440  1.00  0.00     0.006 C 
BRANCH  10  11
ATOM     11  C   UNL     1      25.765  39.965  -0.803  1.00  0.00     0.053 C 
BRANCH  11  12
ATOM     12  C   UNL     1      27.018  39.146  -0.865  1.00  0.00     0.041 C 
ATOM     13  O   UNL     1      27.947  39.340  -0.037  1.00  0.00    -0.550 OA
ATOM     14  O   UNL     1      27.149  38.144  -1.819  1.00  0.00    -0.550 OA
ENDBRANCH  11  12
ENDBRANCH  10  11
ENDBRANCH   9  10
ENDBRANCH   8   9
ENDBRANCH   7   8
ENDBRANCH   6   7
ENDBRANCH   5   6
ENDBRANCH   4   5
ENDBRANCH   3   4
ENDBRANCH   2   3
ENDBRANCH   1   2
BRANCH   1  15
ATOM     15  C   UNL     1      27.791  41.395   4.145  1.00  0.00     0.000 C 
BRANCH  15  16
ATOM     16  C   UNL     1      27.894  40.853   5.582  1.00  0.00     0.000 C 
BRANCH  16  17
ATOM     17  C   UNL     1      29.318  40.941   6.152  1.00  0.00     0.000 C 
BRANCH  17  18
ATOM     18  C   UNL     1      29.311  41.513   7.578  1.00  0.00    -0.000 C 
BRANCH  18  19
ATOM     19  C   UNL     1      28.986  43.021   7.618  1.00  0.00    -0.000 C 
BRANCH  19  20
ATOM     20  C   UNL     1      27.680  43.369   8.360  1.00  0.00    -0.000 C 
BRANCH  20  21
ATOM     21  C   UNL     1      27.287  42.414   9.503  1.00  0.00    -0.000 C 
BRANCH  21  22
ATOM     22  C   UNL     1      25.774  42.265   9.748  1.00  0.00    -0.000 C 
BRANCH  22  23
ATOM     23  C   UNL     1      25.139  41.134   8.923  1.00  0.00    -0.000 C 
BRANCH  23  24
ATOM     24  C   UNL     1      26.107  39.965   8.675  1.00  0.00    -0.000 C 
BRANCH  24  25
ATOM     25  C   UNL     1      25.440  38.729   8.034  1.00  0.00    -0.003 C 
ATOM     26  C   UNL     1      26.429  37.886   7.228  1.00  0.00     0.004 C 
ENDBRANCH  24  25
ENDBRANCH  23  24
ENDBRANCH  22  23
ENDBRANCH  21  22
ENDBRANCH  20  21
ENDBRANCH  19  20
ENDBRANCH  18  19
ENDBRANCH  17  18
ENDBRANCH  16  17
ENDBRANCH  15  16
ENDBRANCH   1  15
TORSDOF 22
ENDMDL
MODEL 2
REMARK VINA RESULT:    -3.054     16.891     20.116
REMARK INTER + INTRA:         -11.258
REMARK INTER:                  -7.591
REMARK INTRA:                  -3.667
REMARK UNBOUND:                -4.276
REMARK SMILES CCCCCCCCCCCCCCCCCCCCCCCC(=O)[O-]
REMARK SMILES IDX 13 1 14 2 15 3 16 4 17 5 18 6 19 7 20 8 21 9 22 10 23 11
REMARK SMILES IDX 24 12 25 13 26 14 12 15 11 16 10 17 9 18 8 19 7 20 6 21 5 22
REMARK SMILES IDX 4 23 3 24 2 25 1 26
REMARK H PARENT
REMARK Flexibility Score: inf
ROOT
ATOM      1  C   UNL     1      39.223  30.240   6.718  1.00  0.00     0.000 C 
ENDROOT
BRANCH   1   2
ATOM      2  C   UNL     1      39.335  29.038   7.672  1.00  0.00     0.000 C 
BRANCH   2   3
ATOM      3  C   UNL     1      39.793  27.753   6.961  1.00  0.00     0.000 C 
BRANCH   3   4
ATOM      4  C   UNL     1      41.127  27.220   7.510  1.00  0.00     0.000 C 
BRANCH   4   5
ATOM      5  C   UNL     1      42.256  27.267   6.464  1.00  0.00     0.000 C 
BRANCH   5   6
ATOM      6  C   UNL     1      42.524  28.691   5.946  1.00  0.00     0.000 C 
BRANCH   6   7
ATOM      7  C   UNL     1      43.925  29.202   6.321  1.00  0.00     0.000 C 
BRANCH   7   8
ATOM      8  C   UNL     1      43.976  29.834   7.725  1.00  0.00     0.000 C 
BRANCH   8   9
ATOM      9  C   UNL     1      42.679  30.531   8.183  1.00  0.00     0.000 C 
BRANCH   9  10
ATOM     10  C   UNL     1      42.678  31.039   9.638  1.00  0.00     0.006 C 
BRANCH  10  11
ATOM     11  C   UNL     1      42.782  29.921  10.692  1.00  0.00     0.053 C 
BRANCH  11  12
ATOM     12  C   UNL     1      41.497  29.169  10.857  1.00  0.00     0.041 C 
ATOM     13  O   UNL     1      41.501  27.912  10.928  1.00  0.00    -0.550 OA
ATOM     14  O   UNL     1      40.296  29.858  10.963  1.00  0.00    -0.550 OA
ENDBRANCH  11  12
ENDBRANCH  10  11
ENDBRANCH   9  10
ENDBRANCH   8   9
ENDBRANCH   7   8
ENDBRANCH   6   7
ENDBRANCH   5   6
ENDBRANCH   4   5
ENDBRANCH   3   4
ENDBRANCH   2   3
ENDBRANCH   1   2
BRANCH   1  15
ATOM     15  C   UNL     1      39.048  29.879   5.229  1.00  0.00     0.000 C 
BRANCH  15  16
ATOM     16  C   UNL     1      39.989  30.620   4.261  1.00  0.00     0.000 C 
BRANCH  16  17
ATOM     17  C   UNL     1      39.615  32.099   4.082  1.00  0.00     0.000 C 
BRANCH  17  18
ATOM     18  C   UNL     1      40.820  33.013   4.355  1.00  0.00    -0.000 C 
BRANCH  18  19
ATOM     19  C   UNL     1      41.933  32.313   5.163  1.00  0.00    -0.000 C 
BRANCH  19  20
ATOM     20  C   UNL     1      43.355  32.536   4.609  1.00  0.00    -0.000 C 
BRANCH  20  21
ATOM     21  C   UNL     1      43.774  31.606   3.455  1.00  0.00    -0.000 C 
BRANCH  21  22
ATOM     22  C   UNL     1      43.868  32.274   2.070  1.00  0.00    -0.000 C 
BRANCH  22  23
ATOM     23  C   UNL     1      42.534  32.266   1.307  1.00  0.00    -0.000 C 
BRANCH  23  24
ATOM     24  C   UNL     1      42.595  33.069  -0.004  1.00  0.00    -0.000 C 
BRANCH  24  25
ATOM     25  C   UNL     1      41.643  32.545  -1.101  1.00  0.00    -0.003 C 
ATOM     26  C   UNL     1      40.838  33.668  -1.756  1.00  0.00     0.004 C 
ENDBRANCH  24  25
ENDBRANCH  23  24
ENDBRANCH  22  23
ENDBRANCH  21  22
ENDBRANCH  20  21
ENDBRANCH  19  20
ENDBRANCH  18  19
ENDBRANCH  17  18
ENDBRANCH  16  17
ENDBRANCH  15  16
ENDBRANCH   1  15
TORSDOF 22
ENDMDL
MODEL 3
REMARK VINA RESULT:    -3.024      3.830      7.396
REMARK INTER + INTRA:         -11.189
REMARK INTER:                  -7.504
REMARK INTRA:                  -3.685
REMARK UNBOUND:                -4.276
REMARK SMILES CCCCCCCCCCCCCCCCCCCCCCCC(=O)[O-]
REMARK SMILES IDX 13 1 14 2 15 3 16 4 17 5 18 6 19 7 20 8 21 9 22 10 23 11
REMARK SMILES IDX 24 12 25 13 26 14 12 15 11 16 10 17 9 18 8 19 7 20 6 21 5 22
REMARK SMILES IDX 4 23 3 24 2 25 1 26
REMARK H PARENT
REMARK Flexibility Score: inf
ROOT
ATOM      1  C   UNL     1      28.672  38.556   1.812  1.00  0.00     0.000 C 
ENDROOT
BRANCH   1   2
ATOM      2  C   UNL     1      28.331  39.946   2.377  1.00  0.00     0.000 C 
BRANCH   2   3
ATOM      3  C   UNL     1      28.468  40.016   3.908  1.00  0.00     0.000 C 
BRANCH   3   4
ATOM      4  C   UNL     1      27.380  40.888   4.557  1.00  0.00     0.000 C 
BRANCH   4   5
ATOM      5  C   UNL     1      26.459  41.551   3.516  1.00  0.00     0.000 C 
BRANCH   5   6
ATOM      6  C   UNL     1      25.505  42.583   4.142  1.00  0.00     0.000 C 
BRANCH   6   7
ATOM      7  C   UNL     1      26.188  43.935   4.407  1.00  0.00     0.000 C 
BRANCH   7   8
ATOM      8  C   UNL     1      25.745  44.579   5.735  1.00  0.00     0.000 C 
BRANCH   8   9
ATOM      9  C   UNL     1      24.619  43.839   6.484  1.00  0.00     0.000 C 
BRANCH   9  10
ATOM     10  C   UNL     1      25.079  42.931   7.641  1.00  0.00     0.006 C 
BRANCH  10  11
ATOM     11  C   UNL     1      26.431  43.338   8.257  1.00  0.00     0.053 C 
BRANCH  11  12
ATOM     12  C   UNL     1      26.277  44.331   9.369  1.00  0.00     0.041 C 
ATOM     13  O   UNL     1      26.757  45.490   9.257  1.00  0.00    -0.550 OA
ATOM     14  O   UNL     1      25.575  43.988  10.517  1.00  0.00    -0.550 OA
ENDBRANCH  11  12
ENDBRANCH  10  11
ENDBRANCH   9  10
ENDBRANCH   8   9
ENDBRANCH   7   8
ENDBRANCH   6   7
ENDBRANCH   5   6
ENDBRANCH   4   5
ENDBRANCH   3   4
ENDBRANCH   2   3
ENDBRANCH   1   2
BRANCH   1  15
ATOM     15  C   UNL     1      28.950  38.516   0.295  1.00  0.00     0.000 C 
BRANCH  15  16
ATOM     16  C   UNL     1      27.731  38.180  -0.585  1.00  0.00     0.000 C 
BRANCH  16  17
ATOM     17  C   UNL     1      27.267  39.370  -1.439  1.00  0.00     0.000 C 
BRANCH  17  18
ATOM     18  C   UNL     1      25.762  39.628  -1.258  1.00  0.00    -0.000 C 
BRANCH  18  19
ATOM     19  C   UNL     1      25.377  39.931   0.205  1.00  0.00    -0.000 C 
BRANCH  19  20
ATOM     20  C   UNL     1      23.955  39.479   0.593  1.00  0.00    -0.000 C 
BRANCH  20  21
ATOM     21  C   UNL     1      23.876  38.322   1.607  1.00  0.00    -0.000 C 
BRANCH  21  22
ATOM     22  C   UNL     1      25.226  37.860   2.188  1.00  0.00    -0.000 C 
BRANCH  22  23
ATOM     23  C   UNL     1      25.266  37.899   3.724  1.00  0.00    -0.000 C 
BRANCH  23  24
ATOM     24  C   UNL     1      24.122  38.734   4.326  1.00  0.00    -0.000 C 
BRANCH  24  25
ATOM     25  C   UNL     1      23.940  38.535   5.846  1.00  0.00    -0.003 C 
ATOM     26  C   UNL     1      24.731  39.556   6.665  1.00  0.00     0.004 C 
ENDBRANCH  24  25
ENDBRANCH  23  24
ENDBRANCH  22  23
ENDBRANCH  21  22
ENDBRANCH  20  21
ENDBRANCH  19  20
ENDBRANCH  18  19
ENDBRANCH  17  18
ENDBRANCH  16  17
ENDBRANCH  15  16
ENDBRANCH   1  15
TORSDOF 22
ENDMDL
MODEL 4
REMARK VINA RESULT:    -3.012     15.893     18.422
REMARK INTER + INTRA:         -11.162
REMARK INTER:                  -7.522
REMARK INTRA:                  -3.640
REMARK UNBOUND:                -4.276
REMARK SMILES CCCCCCCCCCCCCCCCCCCCCCCC(=O)[O-]
REMARK SMILES IDX 13 1 14 2 15 3 16 4 17 5 18 6 19 7 20 8 21 9 22 10 23 11
REMARK SMILES IDX 24 12 25 13 26 14 12 15 11 16 10 17 9 18 8 19 7 20 6 21 5 22
REMARK SMILES IDX 4 23 3 24 2 25 1 26
REMARK H PARENT
REMARK Flexibility Score: inf
ROOT
ATOM      1  C   UNL     1      41.630  34.055   8.435  1.00  0.00     0.000 C 
ENDROOT
BRANCH   1   2
ATOM      2  C   UNL     1      41.678  33.348   7.070  1.00  0.00     0.000 C 
BRANCH   2   3
ATOM      3  C   UNL     1      42.990  33.609   6.309  1.00  0.00     0.000 C 
BRANCH   3   4
ATOM      4  C   UNL     1      42.893  33.233   4.822  1.00  0.00     0.000 C 
BRANCH   4   5
ATOM      5  C   UNL     1      43.971  32.218   4.399  1.00  0.00     0.000 C 
BRANCH   5   6
ATOM      6  C   UNL     1      43.594  31.452   3.120  1.00  0.00     0.000 C 
BRANCH   6   7
ATOM      7  C   UNL     1      43.880  32.258   1.842  1.00  0.00     0.000 C 
BRANCH   7   8
ATOM      8  C   UNL     1      42.631  32.444   0.959  1.00  0.00     0.000 C 
BRANCH   8   9
ATOM      9  C   UNL     1      42.910  32.858  -0.500  1.00  0.00     0.000 C 
BRANCH   9  10
ATOM     10  C   UNL     1      41.667  32.980  -1.403  1.00  0.00     0.006 C 
BRANCH  10  11
ATOM     11  C   UNL     1      40.345  33.143  -0.631  1.00  0.00     0.053 C 
BRANCH  11  12
ATOM     12  C   UNL     1      39.859  34.560  -0.622  1.00  0.00     0.041 C 
ATOM     13  O   UNL     1      39.167  35.001  -1.577  1.00  0.00    -0.550 OA
ATOM     14  O   UNL     1      40.143  35.387   0.457  1.00  0.00    -0.550 OA
ENDBRANCH  11  12
ENDBRANCH  10  11
ENDBRANCH   9  10
ENDBRANCH   8   9
ENDBRANCH   7   8
ENDBRANCH   6   7
ENDBRANCH   5   6
ENDBRANCH   4   5
ENDBRANCH   3   4
ENDBRANCH   2   3
ENDBRANCH   1   2
BRANCH   1  15
ATOM     15  C   UNL     1      41.798  33.130   9.658  1.00  0.00     0.000 C 
BRANCH  15  16
ATOM     16  C   UNL     1      42.975  32.140   9.573  1.00  0.00     0.000 C 
BRANCH  16  17
ATOM     17  C   UNL     1      42.607  30.734  10.069  1.00  0.00     0.000 C 
BRANCH  17  18
ATOM     18  C   UNL     1      43.207  29.651   9.158  1.00  0.00    -0.000 C 
BRANCH  18  19
ATOM     19  C   UNL     1      43.574  30.181   7.756  1.00  0.00    -0.000 C 
BRANCH  19  20
ATOM     20  C   UNL     1      43.552  29.111   6.647  1.00  0.00    -0.000 C 
BRANCH  20  21
ATOM     21  C   UNL     1      42.334  29.151   5.704  1.00  0.00    -0.000 C 
BRANCH  21  22
ATOM     22  C   UNL     1      41.042  29.721   6.319  1.00  0.00    -0.000 C 
BRANCH  22  23
ATOM     23  C   UNL     1      39.881  29.799   5.315  1.00  0.00    -0.000 C 
BRANCH  23  24
ATOM     24  C   UNL     1      40.169  30.756   4.146  1.00  0.00    -0.000 C 
BRANCH  24  25
ATOM     25  C   UNL     1      39.326  32.049   4.178  1.00  0.00    -0.003 C 
ATOM     26  C   UNL     1      39.683  33.003   3.037  1.00  0.00     0.004 C 
ENDBRANCH  24  25
ENDBRANCH  23  24
ENDBRANCH  22  23
ENDBRANCH  21  22
ENDBRANCH  20  21
ENDBRANCH  19  20
ENDBRANCH  18  19
ENDBRANCH  17  18
ENDBRANCH  16  17
ENDBRANCH  15  16
ENDBRANCH   1  15
TORSDOF 22
ENDMDL
MODEL 5
REMARK VINA RESULT:    -2.976      1.938      3.988
REMARK INTER + INTRA:         -11.080
REMARK INTER:                  -7.477
REMARK INTRA:                  -3.604
REMARK UNBOUND:                -4.276
REMARK SMILES CCCCCCCCCCCCCCCCCCCCCCCC(=O)[O-]
REMARK SMILES IDX 13 1 14 2 15 3 16 4 17 5 18 6 19 7 20 8 21 9 22 10 23 11
REMARK SMILES IDX 24 12 25 13 26 14 12 15 11 16 10 17 9 18 8 19 7 20 6 21 5 22
REMARK SMILES IDX 4 23 3 24 2 25 1 26
REMARK H PARENT
REMARK Flexibility Score: inf
ROOT
ATOM      1  C   UNL     1      26.970  40.974   5.574  1.00  0.00     0.000 C 
ENDROOT
BRANCH   1   2
ATOM      2  C   UNL     1      27.290  41.716   4.265  1.00  0.00     0.000 C 
BRANCH   2   3
ATOM      3  C   UNL     1      26.027  42.174   3.516  1.00  0.00     0.000 C 
BRANCH   3   4
ATOM      4  C   UNL     1      25.612  41.193   2.407  1.00  0.00     0.000 C 
BRANCH   4   5
ATOM      5  C   UNL     1      24.256  40.522   2.691  1.00  0.00     0.000 C 
BRANCH   5   6
ATOM      6  C   UNL     1      24.350  38.987   2.726  1.00  0.00     0.000 C 
BRANCH   6   7
ATOM      7  C   UNL     1      25.780  38.488   2.994  1.00  0.00     0.000 C 
BRANCH   7   8
ATOM      8  C   UNL     1      26.185  37.314   2.082  1.00  0.00     0.000 C 
BRANCH   8   9
ATOM      9  C   UNL     1      27.435  37.554   1.213  1.00  0.00     0.000 C 
BRANCH   9  10
ATOM     10  C   UNL     1      27.587  38.981   0.651  1.00  0.00     0.006 C 
BRANCH  10  11
ATOM     11  C   UNL     1      27.397  39.077  -0.874  1.00  0.00     0.053 C 
BRANCH  11  12
ATOM     12  C   UNL     1      26.095  39.717  -1.250  1.00  0.00     0.041 C 
ATOM     13  O   UNL     1      26.061  40.622  -2.125  1.00  0.00    -0.550 OA
ATOM     14  O   UNL     1      24.913  39.293  -0.655  1.00  0.00    -0.550 OA
ENDBRANCH  11  12
ENDBRANCH  10  11
ENDBRANCH   9  10
ENDBRANCH   8   9
ENDBRANCH   7   8
ENDBRANCH   6   7
ENDBRANCH   5   6
ENDBRANCH   4   5
ENDBRANCH   3   4
ENDBRANCH   2   3
ENDBRANCH   1   2
BRANCH   1  15
ATOM     15  C   UNL     1      25.501  41.062   6.034  1.00  0.00     0.000 C 
BRANCH  15  16
ATOM     16  C   UNL     1      25.292  41.617   7.455  1.00  0.00     0.000 C 
BRANCH  16  17
ATOM     17  C   UNL     1      24.229  42.725   7.512  1.00  0.00     0.000 C 
BRANCH  17  18
ATOM     18  C   UNL     1      24.100  43.439   6.157  1.00  0.00    -0.000 C 
BRANCH  18  19
ATOM     19  C   UNL     1      24.678  44.870   6.175  1.00  0.00    -0.000 C 
BRANCH  19  20
ATOM     20  C   UNL     1      26.127  44.975   5.661  1.00  0.00    -0.000 C 
BRANCH  20  21
ATOM     21  C   UNL     1      27.227  44.782   6.721  1.00  0.00    -0.000 C 
BRANCH  21  22
ATOM     22  C   UNL     1      26.883  45.298   8.131  1.00  0.00    -0.000 C 
BRANCH  22  23
ATOM     23  C   UNL     1      27.207  44.283   9.239  1.00  0.00    -0.000 C 
BRANCH  23  24
ATOM     24  C   UNL     1      26.113  44.213  10.318  1.00  0.00    -0.000 C 
BRANCH  24  25
ATOM     25  C   UNL     1      26.621  43.720  11.689  1.00  0.00    -0.003 C 
ATOM     26  C   UNL     1      25.988  44.485  12.853  1.00  0.00     0.004 C 
ENDBRANCH  24  25
ENDBRANCH  23  24
ENDBRANCH  22  23
ENDBRANCH  21  22
ENDBRANCH  20  21
ENDBRANCH  19  20
ENDBRANCH  18  19
ENDBRANCH  17  18
ENDBRANCH  16  17
ENDBRANCH  15  16
ENDBRANCH   1  15
TORSDOF 22
ENDMDL
MODEL 6
REMARK VINA RESULT:    -2.975      1.805      3.584
REMARK INTER + INTRA:         -11.077
REMARK INTER:                  -7.127
REMARK INTRA:                  -3.950
REMARK UNBOUND:                -4.276
REMARK SMILES CCCCCCCCCCCCCCCCCCCCCCCC(=O)[O-]
REMARK SMILES IDX 13 1 14 2 15 3 16 4 17 5 18 6 19 7 20 8 21 9 22 10 23 11
REMARK SMILES IDX 24 12 25 13 26 14 12 15 11 16 10 17 9 18 8 19 7 20 6 21 5 22
REMARK SMILES IDX 4 23 3 24 2 25 1 26
REMARK H PARENT
REMARK Flexibility Score: inf
ROOT
ATOM      1  C   UNL     1      27.619  43.363   4.070  1.00  0.00     0.000 C 
ENDROOT
BRANCH   1   2
ATOM      2  C   UNL     1      26.125  43.731   4.060  1.00  0.00     0.000 C 
BRANCH   2   3
ATOM      3  C   UNL     1      25.616  44.191   5.437  1.00  0.00     0.000 C 
BRANCH   3   4
ATOM      4  C   UNL     1      24.581  43.223   6.035  1.00  0.00     0.000 C 
BRANCH   4   5
ATOM      5  C   UNL     1      23.923  42.331   4.967  1.00  0.00     0.000 C 
BRANCH   5   6
ATOM      6  C   UNL     1      24.085  40.831   5.266  1.00  0.00     0.000 C 
BRANCH   6   7
ATOM      7  C   UNL     1      24.227  39.985   3.990  1.00  0.00     0.000 C 
BRANCH   7   8
ATOM      8  C   UNL     1      24.288  40.839   2.709  1.00  0.00     0.000 C 
BRANCH   8   9
ATOM      9  C   UNL     1      25.383  40.439   1.701  1.00  0.00     0.000 C 
BRANCH   9  10
ATOM     10  C   UNL     1      24.886  39.712   0.436  1.00  0.00     0.006 C 
BRANCH  10  11
ATOM     11  C   UNL     1      25.992  38.964  -0.331  1.00  0.00     0.053 C 
BRANCH  11  12
ATOM     12  C   UNL     1      26.491  39.737  -1.514  1.00  0.00     0.041 C 
ATOM     13  O   UNL     1      25.734  40.551  -2.106  1.00  0.00    -0.550 OA
ATOM     14  O   UNL     1      27.802  39.581  -1.945  1.00  0.00    -0.550 OA
ENDBRANCH  11  12
ENDBRANCH  10  11
ENDBRANCH   9  10
ENDBRANCH   8   9
ENDBRANCH   7   8
ENDBRANCH   6   7
ENDBRANCH   5   6
ENDBRANCH   4   5
ENDBRANCH   3   4
ENDBRANCH   2   3
ENDBRANCH   1   2
BRANCH   1  15
ATOM     15  C   UNL     1      27.926  41.866   3.864  1.00  0.00     0.000 C 
BRANCH  15  16
ATOM     16  C   UNL     1      27.834  40.998   5.134  1.00  0.00     0.000 C 
BRANCH  16  17
ATOM     17  C   UNL     1      29.150  40.957   5.924  1.00  0.00     0.000 C 
BRANCH  17  18
ATOM     18  C   UNL     1      28.904  41.184   7.424  1.00  0.00    -0.000 C 
BRANCH  18  19
ATOM     19  C   UNL     1      27.817  42.244   7.700  1.00  0.00    -0.000 C 
BRANCH  19  20
ATOM     20  C   UNL     1      28.359  43.583   8.238  1.00  0.00    -0.000 C 
BRANCH  20  21
ATOM     21  C   UNL     1      28.734  44.629   7.170  1.00  0.00    -0.000 C 
BRANCH  21  22
ATOM     22  C   UNL     1      30.041  45.401   7.432  1.00  0.00    -0.000 C 
BRANCH  22  23
ATOM     23  C   UNL     1      31.014  45.357   6.243  1.00  0.00    -0.000 C 
BRANCH  23  24
ATOM     24  C   UNL     1      31.329  43.923   5.786  1.00  0.00    -0.000 C 
BRANCH  24  25
ATOM     25  C   UNL     1      31.187  43.708   4.264  1.00  0.00    -0.003 C 
ATOM     26  C   UNL     1      32.528  43.807   3.535  1.00  0.00     0.004 C 
ENDBRANCH  24  25
ENDBRANCH  23  24
ENDBRANCH  22  23
ENDBRANCH  21  22
ENDBRANCH  20  21
ENDBRANCH  19  20
ENDBRANCH  18  19
ENDBRANCH  17  18
ENDBRANCH  16  17
ENDBRANCH  15  16
ENDBRANCH   1  15
TORSDOF 22
ENDMDL
MODEL 7
REMARK VINA RESULT:    -2.941      1.467      4.432
REMARK INTER + INTRA:         -11.000
REMARK INTER:                  -7.046
REMARK INTRA:                  -3.954
REMARK UNBOUND:                -4.276
REMARK SMILES CCCCCCCCCCCCCCCCCCCCCCCC(=O)[O-]
REMARK SMILES IDX 13 1 14 2 15 3 16 4 17 5 18 6 19 7 20 8 21 9 22 10 23 11
REMARK SMILES IDX 24 12 25 13 26 14 12 15 11 16 10 17 9 18 8 19 7 20 6 21 5 22
REMARK SMILES IDX 4 23 3 24 2 25 1 26
REMARK H PARENT
REMARK Flexibility Score: inf
ROOT
ATOM      1  C   UNL     1      27.601  42.389   7.855  1.00  0.00     0.000 C 
ENDROOT
BRANCH   1   2
ATOM      2  C   UNL     1      26.578  41.241   7.789  1.00  0.00     0.000 C 
BRANCH   2   3
ATOM      3  C   UNL     1      25.198  41.641   8.340  1.00  0.00     0.000 C 
BRANCH   3   4
ATOM      4  C   UNL     1      24.105  41.619   7.259  1.00  0.00     0.000 C 
BRANCH   4   5
ATOM      5  C   UNL     1      24.382  40.577   6.160  1.00  0.00     0.000 C 
BRANCH   5   6
ATOM      6  C   UNL     1      23.912  41.041   4.771  1.00  0.00     0.000 C 
BRANCH   6   7
ATOM      7  C   UNL     1      24.335  40.077   3.651  1.00  0.00     0.000 C 
BRANCH   7   8
ATOM      8  C   UNL     1      24.230  40.706   2.248  1.00  0.00     0.000 C 
BRANCH   8   9
ATOM      9  C   UNL     1      23.925  39.719   1.104  1.00  0.00     0.000 C 
BRANCH   9  10
ATOM     10  C   UNL     1      24.995  39.637  -0.003  1.00  0.00     0.006 C 
BRANCH  10  11
ATOM     11  C   UNL     1      26.442  39.645   0.524  1.00  0.00     0.053 C 
BRANCH  11  12
ATOM     12  C   UNL     1      27.441  39.309  -0.542  1.00  0.00     0.041 C 
ATOM     13  O   UNL     1      27.132  39.417  -1.759  1.00  0.00    -0.550 OA
ATOM     14  O   UNL     1      28.723  38.906  -0.193  1.00  0.00    -0.550 OA
ENDBRANCH  11  12
ENDBRANCH  10  11
ENDBRANCH   9  10
ENDBRANCH   8   9
ENDBRANCH   7   8
ENDBRANCH   6   7
ENDBRANCH   5   6
ENDBRANCH   4   5
ENDBRANCH   3   4
ENDBRANCH   2   3
ENDBRANCH   1   2
BRANCH   1  15
ATOM     15  C   UNL     1      27.087  43.686   8.514  1.00  0.00     0.000 C 
BRANCH  15  16
ATOM     16  C   UNL     1      27.030  44.913   7.585  1.00  0.00     0.000 C 
BRANCH  16  17
ATOM     17  C   UNL     1      25.853  44.859   6.599  1.00  0.00     0.000 C 
BRANCH  17  18
ATOM     18  C   UNL     1      26.346  44.900   5.144  1.00  0.00    -0.000 C 
BRANCH  18  19
ATOM     19  C   UNL     1      25.916  43.662   4.329  1.00  0.00    -0.000 C 
BRANCH  19  20
ATOM     20  C   UNL     1      27.055  43.004   3.525  1.00  0.00    -0.000 C 
BRANCH  20  21
ATOM     21  C   UNL     1      27.750  41.811   4.208  1.00  0.00    -0.000 C 
BRANCH  21  22
ATOM     22  C   UNL     1      29.221  42.041   4.602  1.00  0.00    -0.000 C 
BRANCH  22  23
ATOM     23  C   UNL     1      29.752  43.417   4.168  1.00  0.00    -0.000 C 
BRANCH  23  24
ATOM     24  C   UNL     1      29.991  44.363   5.357  1.00  0.00    -0.000 C 
BRANCH  24  25
ATOM     25  C   UNL     1      30.755  43.711   6.529  1.00  0.00    -0.003 C 
ATOM     26  C   UNL     1      31.775  44.660   7.159  1.00  0.00     0.004 C 
ENDBRANCH  24  25
ENDBRANCH  23  24
ENDBRANCH  22  23
ENDBRANCH  21  22
ENDBRANCH  20  21
ENDBRANCH  19  20
ENDBRANCH  18  19
ENDBRANCH  17  18
ENDBRANCH  16  17
ENDBRANCH  15  16
ENDBRANCH   1  15
TORSDOF 22
ENDMDL
MODEL 8
REMARK VINA RESULT:    -2.936      3.983      7.559
REMARK INTER + INTRA:         -10.987
REMARK INTER:                  -7.037
REMARK INTRA:                  -3.951
REMARK UNBOUND:                -4.276
REMARK SMILES CCCCCCCCCCCCCCCCCCCCCCCC(=O)[O-]
REMARK SMILES IDX 13 1 14 2 15 3 16 4 17 5 18 6 19 7 20 8 21 9 22 10 23 11
REMARK SMILES IDX 24 12 25 13 26 14 12 15 11 16 10 17 9 18 8 19 7 20 6 21 5 22
REMARK SMILES IDX 4 23 3 24 2 25 1 26
REMARK H PARENT
REMARK Flexibility Score: inf
ROOT
ATOM      1  C   UNL     1      28.309  45.215   6.503  1.00  0.00     0.000 C 
ENDROOT
BRANCH   1   2
ATOM      2  C   UNL     1      26.899  45.776   6.754  1.00  0.00     0.000 C 
BRANCH   2   3
ATOM      3  C   UNL     1      25.935  45.512   5.585  1.00  0.00     0.000 C 
BRANCH   3   4
ATOM      4  C   UNL     1      24.632  44.833   6.037  1.00  0.00     0.000 C 
BRANCH   4   5
ATOM      5  C   UNL     1      24.769  43.303   6.136  1.00  0.00     0.000 C 
BRANCH   5   6
ATOM      6  C   UNL     1      24.768  42.800   7.589  1.00  0.00     0.000 C 
BRANCH   6   7
ATOM      7  C   UNL     1      25.598  41.518   7.772  1.00  0.00     0.000 C 
BRANCH   7   8
ATOM      8  C   UNL     1      25.875  41.190   9.252  1.00  0.00     0.000 C 
BRANCH   8   9
ATOM      9  C   UNL     1      27.192  41.758   9.817  1.00  0.00     0.000 C 
BRANCH   9  10
ATOM     10  C   UNL     1      27.048  42.644  11.070  1.00  0.00     0.006 C 
BRANCH  10  11
ATOM     11  C   UNL     1      26.118  43.856  10.875  1.00  0.00     0.053 C 
BRANCH  11  12
ATOM     12  C   UNL     1      26.806  45.157  11.161  1.00  0.00     0.041 C 
ATOM     13  O   UNL     1      27.374  45.792  10.233  1.00  0.00    -0.550 OA
ATOM     14  O   UNL     1      26.793  45.684  12.445  1.00  0.00    -0.550 OA
ENDBRANCH  11  12
ENDBRANCH  10  11
ENDBRANCH   9  10
ENDBRANCH   8   9
ENDBRANCH   7   8
ENDBRANCH   6   7
ENDBRANCH   5   6
ENDBRANCH   4   5
ENDBRANCH   3   4
ENDBRANCH   2   3
ENDBRANCH   1   2
BRANCH   1  15
ATOM     15  C   UNL     1      28.556  43.796   7.055  1.00  0.00     0.000 C 
BRANCH  15  16
ATOM     16  C   UNL     1      28.555  42.674   6.001  1.00  0.00     0.000 C 
BRANCH  16  17
ATOM     17  C   UNL     1      28.428  43.205   4.565  1.00  0.00     0.000 C 
BRANCH  17  18
ATOM     18  C   UNL     1      27.410  42.385   3.757  1.00  0.00    -0.000 C 
BRANCH  18  19
ATOM     19  C   UNL     1      27.159  40.984   4.355  1.00  0.00    -0.000 C 
BRANCH  19  20
ATOM     20  C   UNL     1      25.796  40.369   3.978  1.00  0.00    -0.000 C 
BRANCH  20  21
ATOM     21  C   UNL     1      24.844  41.289   3.191  1.00  0.00    -0.000 C 
BRANCH  21  22
ATOM     22  C   UNL     1      24.082  40.616   2.034  1.00  0.00    -0.000 C 
BRANCH  22  23
ATOM     23  C   UNL     1      24.877  39.480   1.371  1.00  0.00    -0.000 C 
BRANCH  23  24
ATOM     24  C   UNL     1      25.734  39.966   0.189  1.00  0.00    -0.000 C 
BRANCH  24  25
ATOM     25  C   UNL     1      27.184  39.436   0.212  1.00  0.00    -0.003 C 
ATOM     26  C   UNL     1      27.398  38.377   1.294  1.00  0.00     0.004 C 
ENDBRANCH  24  25
ENDBRANCH  23  24
ENDBRANCH  22  23
ENDBRANCH  21  22
ENDBRANCH  20  21
ENDBRANCH  19  20
ENDBRANCH  18  19
ENDBRANCH  17  18
ENDBRANCH  16  17
ENDBRANCH  15  16
ENDBRANCH   1  15
TORSDOF 22
ENDMDL
MODEL 9
REMARK VINA RESULT:    -2.884     16.240     19.524
REMARK INTER + INTRA:         -10.868
REMARK INTER:                  -6.575
REMARK INTRA:                  -4.293
REMARK UNBOUND:                -4.276
REMARK SMILES CCCCCCCCCCCCCCCCCCCCCCCC(=O)[O-]
REMARK SMILES IDX 13 1 14 2 15 3 16 4 17 5 18 6 19 7 20 8 21 9 22 10 23 11
REMARK SMILES IDX 24 12 25 13 26 14 12 15 11 16 10 17 9 18 8 19 7 20 6 21 5 22
REMARK SMILES IDX 4 23 3 24 2 25 1 26
REMARK H PARENT
REMARK Flexibility Score: inf
ROOT
ATOM      1  C   UNL     1      40.209  29.676   5.878  1.00  0.00     0.000 C 
ENDROOT
BRANCH   1   2
ATOM      2  C   UNL     1      40.260  29.297   7.369  1.00  0.00     0.000 C 
BRANCH   2   3
ATOM      3  C   UNL     1      41.526  28.504   7.739  1.00  0.00     0.000 C 
BRANCH   3   4
ATOM      4  C   UNL     1      42.401  28.187   6.515  1.00  0.00     0.000 C 
BRANCH   4   5
ATOM      5  C   UNL     1      43.753  28.922   6.552  1.00  0.00     0.000 C 
BRANCH   5   6
ATOM      6  C   UNL     1      43.893  29.843   7.776  1.00  0.00     0.000 C 
BRANCH   6   7
ATOM      7  C   UNL     1      43.791  31.333   7.411  1.00  0.00     0.000 C 
BRANCH   7   8
ATOM      8  C   UNL     1      43.410  32.220   8.612  1.00  0.00     0.000 C 
BRANCH   8   9
ATOM      9  C   UNL     1      42.624  31.510   9.732  1.00  0.00     0.000 C 
BRANCH   9  10
ATOM     10  C   UNL     1      41.343  32.229  10.201  1.00  0.00     0.006 C 
BRANCH  10  11
ATOM     11  C   UNL     1      40.366  32.574   9.061  1.00  0.00     0.053 C 
BRANCH  11  12
ATOM     12  C   UNL     1      40.137  34.049   8.932  1.00  0.00     0.041 C 
ATOM     13  O   UNL     1      41.033  34.864   9.275  1.00  0.00    -0.550 OA
ATOM     14  O   UNL     1      38.943  34.524   8.403  1.00  0.00    -0.550 OA
ENDBRANCH  11  12
ENDBRANCH  10  11
ENDBRANCH   9  10
ENDBRANCH   8   9
ENDBRANCH   7   8
ENDBRANCH   6   7
ENDBRANCH   5   6
ENDBRANCH   4   5
ENDBRANCH   3   4
ENDBRANCH   2   3
ENDBRANCH   1   2
BRANCH   1  15
ATOM     15  C   UNL     1      40.562  31.144   5.564  1.00  0.00     0.000 C 
BRANCH  15  16
ATOM     16  C   UNL     1      41.049  31.407   4.127  1.00  0.00     0.000 C 
BRANCH  16  17
ATOM     17  C   UNL     1      42.301  30.594   3.764  1.00  0.00     0.000 C 
BRANCH  17  18
ATOM     18  C   UNL     1      43.399  31.498   3.180  1.00  0.00    -0.000 C 
BRANCH  18  19
ATOM     19  C   UNL     1      43.801  32.645   4.132  1.00  0.00    -0.000 C 
BRANCH  19  20
ATOM     20  C   UNL     1      43.816  34.039   3.474  1.00  0.00    -0.000 C 
BRANCH  20  21
ATOM     21  C   UNL     1      42.555  34.895   3.696  1.00  0.00    -0.000 C 
BRANCH  21  22
ATOM     22  C   UNL     1      41.402  34.640   2.707  1.00  0.00    -0.000 C 
BRANCH  22  23
ATOM     23  C   UNL     1      41.868  34.568   1.244  1.00  0.00    -0.000 C 
BRANCH  23  24
ATOM     24  C   UNL     1      41.552  33.214   0.586  1.00  0.00    -0.000 C 
BRANCH  24  25
ATOM     25  C   UNL     1      42.601  32.766  -0.453  1.00  0.00    -0.003 C 
ATOM     26  C   UNL     1      44.027  33.127  -0.033  1.00  0.00     0.004 C 
ENDBRANCH  24  25
ENDBRANCH  23  24
ENDBRANCH  22  23
ENDBRANCH  21  22
ENDBRANCH  20  21
ENDBRANCH  19  20
ENDBRANCH  18  19
ENDBRANCH  17  18
ENDBRANCH  16  17
ENDBRANCH  15  16
ENDBRANCH   1  15
TORSDOF 22
ENDMDL
