MODEL 1
REMARK VINA RESULT:    -5.990      0.000      0.000
REMARK INTER + INTRA:          -7.615
REMARK INTER:                  -7.216
REMARK INTRA:                  -0.400
REMARK UNBOUND:                -0.400
REMARK SMILES O=c1c(O)c(-c2ccc(O)cc2O)oc2cc(O)cc(O)c12
REMARK SMILES IDX 5 1 3 2 2 3 1 4 22 5 20 6 19 7 17 8 16 9 15 10 14 11 6 12
REMARK SMILES IDX 8 13 7 14 9 15 11 16 12 17 10 18 13 20 4 22 21 24 18 26
REMARK H PARENT 10 19 13 21 4 23 21 25 18 27
REMARK Flexibility Score: inf
ROOT
ATOM      1  C   UNL     1      27.431  38.836  20.073  1.00  0.00     0.184 A 
ATOM      2  C   UNL     1      26.588  39.393  21.049  1.00  0.00     0.208 A 
ATOM      3  C   UNL     1      26.390  40.783  21.066  1.00  0.00     0.238 A 
ATOM      4  O   UNL     1      25.691  41.282  21.986  1.00  0.00    -0.285 OA
ATOM      5  C   UNL     1      26.995  41.593  20.075  1.00  0.00     0.111 A 
ATOM      6  C   UNL     1      26.827  43.007  19.968  1.00  0.00     0.134 A 
ATOM      7  C   UNL     1      27.562  43.719  19.012  1.00  0.00     0.093 A 
ATOM      8  C   UNL     1      28.409  43.061  18.118  1.00  0.00     0.123 A 
ATOM      9  C   UNL     1      28.538  41.676  18.178  1.00  0.00     0.094 A 
ATOM     10  C   UNL     1      27.847  40.942  19.145  1.00  0.00     0.146 A 
ATOM     11  O   UNL     1      28.015  39.625  19.179  1.00  0.00    -0.451 OA
ENDROOT
BRANCH   1  12
ATOM     12  C   UNL     1      27.695  37.381  20.006  1.00  0.00     0.063 A 
ATOM     13  C   UNL     1      29.108  35.466  20.522  1.00  0.00     0.047 A 
ATOM     14  C   UNL     1      28.844  36.836  20.609  1.00  0.00     0.020 A 
ATOM     15  C   UNL     1      28.236  34.625  19.823  1.00  0.00     0.119 A 
ATOM     16  C   UNL     1      27.100  35.159  19.209  1.00  0.00     0.093 A 
ATOM     17  C   UNL     1      26.826  36.532  19.293  1.00  0.00     0.130 A 
BRANCH  15  18
ATOM     18  O   UNL     1      28.490  33.259  19.730  1.00  0.00    -0.508 OA
ATOM     19  H   UNL     1      27.852  32.631  19.254  1.00  0.00     0.293 HD
ENDBRANCH  15  18
BRANCH  17  20
ATOM     20  O   UNL     1      25.684  37.050  18.680  1.00  0.00    -0.507 OA
ATOM     21  H   UNL     1      25.665  37.988  18.300  1.00  0.00     0.293 HD
ENDBRANCH  17  20
ENDBRANCH   1  12
BRANCH   2  22
ATOM     22  O   UNL     1      25.946  38.567  21.976  1.00  0.00    -0.502 OA
ATOM     23  H   UNL     1      26.070  38.672  22.976  1.00  0.00     0.293 HD
ENDBRANCH   2  22
BRANCH   6  24
ATOM     24  O   UNL     1      25.941  43.753  20.751  1.00  0.00    -0.507 OA
ATOM     25  H   UNL     1      25.371  43.377  21.495  1.00  0.00     0.293 HD
ENDBRANCH   6  24
BRANCH   8  26
ATOM     26  O   UNL     1      29.124  43.776  17.158  1.00  0.00    -0.508 OA
ATOM     27  H   UNL     1      29.149  44.789  17.162  1.00  0.00     0.293 HD
ENDBRANCH   8  26
TORSDOF 6
ENDMDL
MODEL 2
REMARK VINA RESULT:    -5.257      2.774      7.995
REMARK INTER + INTRA:          -6.732
REMARK INTER:                  -6.266
REMARK INTRA:                  -0.466
REMARK UNBOUND:                -0.400
REMARK SMILES O=c1c(O)c(-c2ccc(O)cc2O)oc2cc(O)cc(O)c12
REMARK SMILES IDX 5 1 3 2 2 3 1 4 22 5 20 6 19 7 17 8 16 9 15 10 14 11 6 12
REMARK SMILES IDX 8 13 7 14 9 15 11 16 12 17 10 18 13 20 4 22 21 24 18 26
REMARK H PARENT 10 19 13 21 4 23 21 25 18 27
REMARK Flexibility Score: inf
ROOT
ATOM      1  C   UNL     1      27.740  36.177  21.336  1.00  0.00     0.184 A 
ATOM      2  C   UNL     1      28.010  35.306  20.269  1.00  0.00     0.208 A 
ATOM      3  C   UNL     1      28.441  33.998  20.549  1.00  0.00     0.238 A 
ATOM      4  O   UNL     1      28.750  33.246  19.588  1.00  0.00    -0.285 OA
ATOM      5  C   UNL     1      28.546  33.564  21.892  1.00  0.00     0.111 A 
ATOM      6  C   UNL     1      28.929  32.248  22.292  1.00  0.00     0.134 A 
ATOM      7  C   UNL     1      29.104  31.964  23.652  1.00  0.00     0.093 A 
ATOM      8  C   UNL     1      28.848  32.928  24.629  1.00  0.00     0.123 A 
ATOM      9  C   UNL     1      28.420  34.199  24.252  1.00  0.00     0.094 A 
ATOM     10  C   UNL     1      28.273  34.525  22.902  1.00  0.00     0.146 A 
ATOM     11  O   UNL     1      27.883  35.754  22.586  1.00  0.00    -0.451 OA
ENDROOT
BRANCH   1  12
ATOM     12  C   UNL     1      27.296  37.573  21.113  1.00  0.00     0.063 A 
ATOM     13  C   UNL     1      27.786  39.864  20.452  1.00  0.00     0.047 A 
ATOM     14  C   UNL     1      28.198  38.541  20.636  1.00  0.00     0.020 A 
ATOM     15  C   UNL     1      26.472  40.240  20.752  1.00  0.00     0.119 A 
ATOM     16  C   UNL     1      25.573  39.288  21.240  1.00  0.00     0.093 A 
ATOM     17  C   UNL     1      25.977  37.958  21.426  1.00  0.00     0.130 A 
BRANCH  15  18
ATOM     18  O   UNL     1      26.052  41.555  20.573  1.00  0.00    -0.508 OA
ATOM     19  H   UNL     1      25.068  41.800  20.553  1.00  0.00     0.293 HD
ENDBRANCH  15  18
BRANCH  17  20
ATOM     20  O   UNL     1      25.066  37.017  21.908  1.00  0.00    -0.507 OA
ATOM     21  H   UNL     1      24.337  36.633  21.320  1.00  0.00     0.293 HD
ENDBRANCH  17  20
ENDBRANCH   1  12
BRANCH   2  22
ATOM     22  O   UNL     1      27.834  35.734  18.950  1.00  0.00    -0.502 OA
ATOM     23  H   UNL     1      26.941  35.679  18.474  1.00  0.00     0.293 HD
ENDBRANCH   2  22
BRANCH   6  24
ATOM     24  O   UNL     1      29.124  31.185  21.405  1.00  0.00    -0.507 OA
ATOM     25  H   UNL     1      29.244  30.221  21.678  1.00  0.00     0.293 HD
ENDBRANCH   6  24
BRANCH   8  26
ATOM     26  O   UNL     1      29.008  32.631  25.981  1.00  0.00    -0.508 OA
ATOM     27  H   UNL     1      29.802  32.975  26.509  1.00  0.00     0.293 HD
ENDBRANCH   8  26
TORSDOF 6
ENDMDL
MODEL 3
REMARK VINA RESULT:    -4.916      2.485      3.615
REMARK INTER + INTRA:          -6.321
REMARK INTER:                  -5.917
REMARK INTRA:                  -0.405
REMARK UNBOUND:                -0.400
REMARK SMILES O=c1c(O)c(-c2ccc(O)cc2O)oc2cc(O)cc(O)c12
REMARK SMILES IDX 5 1 3 2 2 3 1 4 22 5 20 6 19 7 17 8 16 9 15 10 14 11 6 12
REMARK SMILES IDX 8 13 7 14 9 15 11 16 12 17 10 18 13 20 4 22 21 24 18 26
REMARK H PARENT 10 19 13 21 4 23 21 25 18 27
REMARK Flexibility Score: inf
ROOT
ATOM      1  C   UNL     1      26.504  38.597  20.668  1.00  0.00     0.184 A 
ATOM      2  C   UNL     1      26.675  38.240  19.321  1.00  0.00     0.208 A 
ATOM      3  C   UNL     1      27.270  39.160  18.442  1.00  0.00     0.238 A 
ATOM      4  O   UNL     1      27.356  38.861  17.223  1.00  0.00    -0.285 OA
ATOM      5  C   UNL     1      27.734  40.404  18.933  1.00  0.00     0.111 A 
ATOM      6  C   UNL     1      28.393  41.394  18.143  1.00  0.00     0.134 A 
ATOM      7  C   UNL     1      28.710  42.633  18.713  1.00  0.00     0.093 A 
ATOM      8  C   UNL     1      28.450  42.895  20.060  1.00  0.00     0.123 A 
ATOM      9  C   UNL     1      27.858  41.915  20.853  1.00  0.00     0.094 A 
ATOM     10  C   UNL     1      27.495  40.683  20.305  1.00  0.00     0.146 A 
ATOM     11  O   UNL     1      26.914  39.786  21.092  1.00  0.00    -0.451 OA
ENDROOT
BRANCH   1  12
ATOM     12  C   UNL     1      25.871  37.681  21.645  1.00  0.00     0.063 A 
ATOM     13  C   UNL     1      26.052  35.889  23.283  1.00  0.00     0.047 A 
ATOM     14  C   UNL     1      26.652  36.772  22.381  1.00  0.00     0.020 A 
ATOM     15  C   UNL     1      24.663  35.895  23.454  1.00  0.00     0.119 A 
ATOM     16  C   UNL     1      23.877  36.785  22.717  1.00  0.00     0.093 A 
ATOM     17  C   UNL     1      24.471  37.676  21.811  1.00  0.00     0.130 A 
BRANCH  15  18
ATOM     18  O   UNL     1      24.054  35.019  24.350  1.00  0.00    -0.508 OA
ATOM     19  H   UNL     1      24.519  34.176  24.666  1.00  0.00     0.293 HD
ENDBRANCH  15  18
BRANCH  17  20
ATOM     20  O   UNL     1      23.675  38.563  21.087  1.00  0.00    -0.507 OA
ATOM     21  H   UNL     1      23.783  38.680  20.087  1.00  0.00     0.293 HD
ENDBRANCH  17  20
ENDBRANCH   1  12
BRANCH   2  22
ATOM     22  O   UNL     1      26.272  36.979  18.872  1.00  0.00    -0.502 OA
ATOM     23  H   UNL     1      26.934  36.258  18.609  1.00  0.00     0.293 HD
ENDBRANCH   2  22
BRANCH   6  24
ATOM     24  O   UNL     1      28.779  41.205  16.813  1.00  0.00    -0.507 OA
ATOM     25  H   UNL     1      28.295  41.583  16.012  1.00  0.00     0.293 HD
ENDBRANCH   6  24
BRANCH   8  26
ATOM     26  O   UNL     1      28.785  44.124  20.623  1.00  0.00    -0.508 OA
ATOM     27  H   UNL     1      28.095  44.858  20.744  1.00  0.00     0.293 HD
ENDBRANCH   8  26
TORSDOF 6
ENDMDL
MODEL 4
REMARK VINA RESULT:    -4.782      1.227      2.870
REMARK INTER + INTRA:          -6.160
REMARK INTER:                  -5.744
REMARK INTRA:                  -0.416
REMARK UNBOUND:                -0.400
REMARK SMILES O=c1c(O)c(-c2ccc(O)cc2O)oc2cc(O)cc(O)c12
REMARK SMILES IDX 5 1 3 2 2 3 1 4 22 5 20 6 19 7 17 8 16 9 15 10 14 11 6 12
REMARK SMILES IDX 8 13 7 14 9 15 11 16 12 17 10 18 13 20 4 22 21 24 18 26
REMARK H PARENT 10 19 13 21 4 23 21 25 18 27
REMARK Flexibility Score: inf
ROOT
ATOM      1  C   UNL     1      28.007  39.085  19.300  1.00  0.00     0.184 A 
ATOM      2  C   UNL     1      28.548  39.708  18.163  1.00  0.00     0.208 A 
ATOM      3  C   UNL     1      28.514  41.109  18.071  1.00  0.00     0.238 A 
ATOM      4  O   UNL     1      28.935  41.656  17.019  1.00  0.00    -0.285 OA
ATOM      5  C   UNL     1      27.987  41.872  19.141  1.00  0.00     0.111 A 
ATOM      6  C   UNL     1      27.944  43.299  19.177  1.00  0.00     0.134 A 
ATOM      7  C   UNL     1      27.301  43.943  20.242  1.00  0.00     0.093 A 
ATOM      8  C   UNL     1      26.756  43.215  21.302  1.00  0.00     0.123 A 
ATOM      9  C   UNL     1      26.842  41.825  21.303  1.00  0.00     0.094 A 
ATOM     10  C   UNL     1      27.444  41.152  20.238  1.00  0.00     0.146 A 
ATOM     11  O   UNL     1      27.486  39.825  20.271  1.00  0.00    -0.451 OA
ENDROOT
BRANCH   1  12
ATOM     12  C   UNL     1      27.997  37.613  19.454  1.00  0.00     0.063 A 
ATOM     13  C   UNL     1      29.125  35.547  20.077  1.00  0.00     0.047 A 
ATOM     14  C   UNL     1      29.125  36.939  19.958  1.00  0.00     0.020 A 
ATOM     15  C   UNL     1      28.003  34.808  19.686  1.00  0.00     0.119 A 
ATOM     16  C   UNL     1      26.883  35.466  19.172  1.00  0.00     0.093 A 
ATOM     17  C   UNL     1      26.874  36.863  19.050  1.00  0.00     0.130 A 
BRANCH  15  18
ATOM     18  O   UNL     1      27.993  33.420  19.801  1.00  0.00    -0.508 OA
ATOM     19  H   UNL     1      28.391  32.825  19.084  1.00  0.00     0.293 HD
ENDBRANCH  15  18
BRANCH  17  20
ATOM     20  O   UNL     1      25.746  37.508  18.540  1.00  0.00    -0.507 OA
ATOM     21  H   UNL     1      25.776  38.022  17.668  1.00  0.00     0.293 HD
ENDBRANCH  17  20
ENDBRANCH   1  12
BRANCH   2  22
ATOM     22  O   UNL     1      29.125  38.938  17.148  1.00  0.00    -0.502 OA
ATOM     23  H   UNL     1      29.816  39.311  16.508  1.00  0.00     0.293 HD
ENDBRANCH   2  22
BRANCH   6  24
ATOM     24  O   UNL     1      28.534  44.125  18.216  1.00  0.00    -0.507 OA
ATOM     25  H   UNL     1      28.918  43.807  17.339  1.00  0.00     0.293 HD
ENDBRANCH   6  24
BRANCH   8  26
ATOM     26  O   UNL     1      26.133  43.866  22.365  1.00  0.00    -0.508 OA
ATOM     27  H   UNL     1      26.662  44.411  23.036  1.00  0.00     0.293 HD
ENDBRANCH   8  26
TORSDOF 6
ENDMDL
MODEL 5
REMARK VINA RESULT:    -4.775      8.957     13.846
REMARK INTER + INTRA:          -6.152
REMARK INTER:                  -6.185
REMARK INTRA:                   0.033
REMARK UNBOUND:                -0.400
REMARK SMILES O=c1c(O)c(-c2ccc(O)cc2O)oc2cc(O)cc(O)c12
REMARK SMILES IDX 5 1 3 2 2 3 1 4 22 5 20 6 19 7 17 8 16 9 15 10 14 11 6 12
REMARK SMILES IDX 8 13 7 14 9 15 11 16 12 17 10 18 13 20 4 22 21 24 18 26
REMARK H PARENT 10 19 13 21 4 23 21 25 18 27
REMARK Flexibility Score: inf
ROOT
ATOM      1  C   UNL     1      27.304  28.952  25.437  1.00  0.00     0.184 A 
ATOM      2  C   UNL     1      27.972  27.717  25.404  1.00  0.00     0.208 A 
ATOM      3  C   UNL     1      27.455  26.642  26.145  1.00  0.00     0.238 A 
ATOM      4  O   UNL     1      28.097  25.560  26.168  1.00  0.00    -0.285 OA
ATOM      5  C   UNL     1      26.248  26.801  26.868  1.00  0.00     0.111 A 
ATOM      6  C   UNL     1      25.608  25.767  27.617  1.00  0.00     0.134 A 
ATOM      7  C   UNL     1      24.474  26.069  28.381  1.00  0.00     0.093 A 
ATOM      8  C   UNL     1      23.920  27.351  28.373  1.00  0.00     0.123 A 
ATOM      9  C   UNL     1      24.505  28.353  27.602  1.00  0.00     0.094 A 
ATOM     10  C   UNL     1      25.658  28.092  26.859  1.00  0.00     0.146 A 
ATOM     11  O   UNL     1      26.194  29.082  26.154  1.00  0.00    -0.451 OA
ENDROOT
BRANCH   1  12
ATOM     12  C   UNL     1      27.802  30.131  24.692  1.00  0.00     0.063 A 
ATOM     13  C   UNL     1      28.459  32.474  24.643  1.00  0.00     0.047 A 
ATOM     14  C   UNL     1      28.016  31.355  25.352  1.00  0.00     0.020 A 
ATOM     15  C   UNL     1      28.683  32.390  23.264  1.00  0.00     0.119 A 
ATOM     16  C   UNL     1      28.459  31.184  22.597  1.00  0.00     0.093 A 
ATOM     17  C   UNL     1      28.016  30.054  23.301  1.00  0.00     0.130 A 
BRANCH  15  18
ATOM     18  O   UNL     1      29.125  33.501  22.549  1.00  0.00    -0.508 OA
ATOM     19  H   UNL     1      28.899  34.445  22.841  1.00  0.00     0.293 HD
ENDBRANCH  15  18
BRANCH  17  20
ATOM     20  O   UNL     1      27.803  28.853  22.623  1.00  0.00    -0.507 OA
ATOM     21  H   UNL     1      27.469  28.025  23.100  1.00  0.00     0.293 HD
ENDBRANCH  17  20
ENDBRANCH   1  12
BRANCH   2  22
ATOM     22  O   UNL     1      29.125  27.563  24.629  1.00  0.00    -0.502 OA
ATOM     23  H   UNL     1      30.015  27.285  25.026  1.00  0.00     0.293 HD
ENDBRANCH   2  22
BRANCH   6  24
ATOM     24  O   UNL     1      26.025  24.433  27.625  1.00  0.00    -0.507 OA
ATOM     25  H   UNL     1      26.911  24.107  27.981  1.00  0.00     0.293 HD
ENDBRANCH   6  24
BRANCH   8  26
ATOM     26  O   UNL     1      22.781  27.639  29.123  1.00  0.00    -0.508 OA
ATOM     27  H   UNL     1      22.835  28.161  29.990  1.00  0.00     0.293 HD
ENDBRANCH   8  26
TORSDOF 6
ENDMDL
MODEL 6
REMARK VINA RESULT:    -4.434      1.838      3.475
REMARK INTER + INTRA:          -5.741
REMARK INTER:                  -5.274
REMARK INTRA:                  -0.467
REMARK UNBOUND:                -0.400
REMARK SMILES O=c1c(O)c(-c2ccc(O)cc2O)oc2cc(O)cc(O)c12
REMARK SMILES IDX 5 1 3 2 2 3 1 4 22 5 20 6 19 7 17 8 16 9 15 10 14 11 6 12
REMARK SMILES IDX 8 13 7 14 9 15 11 16 12 17 10 18 13 20 4 22 21 24 18 26
REMARK H PARENT 10 19 13 21 4 23 21 25 18 27
REMARK Flexibility Score: inf
ROOT
ATOM      1  C   UNL     1      27.134  39.350  19.282  1.00  0.00     0.184 A 
ATOM      2  C   UNL     1      27.869  40.076  18.330  1.00  0.00     0.208 A 
ATOM      3  C   UNL     1      28.243  41.398  18.621  1.00  0.00     0.238 A 
ATOM      4  O   UNL     1      28.838  42.065  17.736  1.00  0.00    -0.285 OA
ATOM      5  C   UNL     1      27.922  41.960  19.880  1.00  0.00     0.111 A 
ATOM      6  C   UNL     1      28.291  43.273  20.301  1.00  0.00     0.134 A 
ATOM      7  C   UNL     1      27.825  43.761  21.528  1.00  0.00     0.093 A 
ATOM      8  C   UNL     1      27.059  42.961  22.378  1.00  0.00     0.123 A 
ATOM      9  C   UNL     1      26.741  41.658  22.002  1.00  0.00     0.094 A 
ATOM     10  C   UNL     1      27.158  41.156  20.767  1.00  0.00     0.146 A 
ATOM     11  O   UNL     1      26.815  39.916  20.440  1.00  0.00    -0.451 OA
ENDROOT
BRANCH   1  12
ATOM     12  C   UNL     1      26.695  37.957  19.035  1.00  0.00     0.063 A 
ATOM     13  C   UNL     1      25.111  36.384  18.064  1.00  0.00     0.047 A 
ATOM     14  C   UNL     1      25.541  37.697  18.274  1.00  0.00     0.020 A 
ATOM     15  C   UNL     1      25.820  35.314  18.621  1.00  0.00     0.119 A 
ATOM     16  C   UNL     1      26.960  35.563  19.390  1.00  0.00     0.093 A 
ATOM     17  C   UNL     1      27.400  36.878  19.604  1.00  0.00     0.130 A 
BRANCH  15  18
ATOM     18  O   UNL     1      25.400  34.002  18.418  1.00  0.00    -0.508 OA
ATOM     19  H   UNL     1      25.604  33.270  19.089  1.00  0.00     0.293 HD
ENDBRANCH  15  18
BRANCH  17  20
ATOM     20  O   UNL     1      28.543  37.111  20.370  1.00  0.00    -0.507 OA
ATOM     21  H   UNL     1      28.855  38.049  20.588  1.00  0.00     0.293 HD
ENDBRANCH  17  20
ENDBRANCH   1  12
BRANCH   2  22
ATOM     22  O   UNL     1      28.234  39.478  17.120  1.00  0.00    -0.502 OA
ATOM     23  H   UNL     1      27.561  39.030  16.510  1.00  0.00     0.293 HD
ENDBRANCH   2  22
BRANCH   6  24
ATOM     24  O   UNL     1      29.125  44.125  19.571  1.00  0.00    -0.507 OA
ATOM     25  H   UNL     1      29.419  43.968  18.618  1.00  0.00     0.293 HD
ENDBRANCH   6  24
BRANCH   8  26
ATOM     26  O   UNL     1      26.614  43.449  23.605  1.00  0.00    -0.508 OA
ATOM     27  H   UNL     1      26.376  42.826  24.369  1.00  0.00     0.293 HD
ENDBRANCH   8  26
TORSDOF 6
ENDMDL
MODEL 7
REMARK VINA RESULT:    -4.249      2.215      6.806
REMARK INTER + INTRA:          -5.518
REMARK INTER:                  -5.239
REMARK INTRA:                  -0.279
REMARK UNBOUND:                -0.400
REMARK SMILES O=c1c(O)c(-c2ccc(O)cc2O)oc2cc(O)cc(O)c12
REMARK SMILES IDX 5 1 3 2 2 3 1 4 22 5 20 6 19 7 17 8 16 9 15 10 14 11 6 12
REMARK SMILES IDX 8 13 7 14 9 15 11 16 12 17 10 18 13 20 4 22 21 24 18 26
REMARK H PARENT 10 19 13 21 4 23 21 25 18 27
REMARK Flexibility Score: inf
ROOT
ATOM      1  C   UNL     1      27.436  38.941  20.597  1.00  0.00     0.184 A 
ATOM      2  C   UNL     1      26.685  38.719  19.431  1.00  0.00     0.208 A 
ATOM      3  C   UNL     1      26.545  37.406  18.951  1.00  0.00     0.238 A 
ATOM      4  O   UNL     1      25.931  37.222  17.868  1.00  0.00    -0.285 OA
ATOM      5  C   UNL     1      27.114  36.328  19.671  1.00  0.00     0.111 A 
ATOM      6  C   UNL     1      26.996  34.954  19.303  1.00  0.00     0.134 A 
ATOM      7  C   UNL     1      27.692  33.982  20.033  1.00  0.00     0.093 A 
ATOM      8  C   UNL     1      28.449  34.327  21.154  1.00  0.00     0.123 A 
ATOM      9  C   UNL     1      28.525  35.659  21.554  1.00  0.00     0.094 A 
ATOM     10  C   UNL     1      27.873  36.656  20.826  1.00  0.00     0.146 A 
ATOM     11  O   UNL     1      27.989  37.915  21.231  1.00  0.00    -0.451 OA
ENDROOT
BRANCH   1  12
ATOM     12  C   UNL     1      27.636  40.301  21.150  1.00  0.00     0.063 A 
ATOM     13  C   UNL     1      29.113  42.146  21.731  1.00  0.00     0.047 A 
ATOM     14  C   UNL     1      28.920  40.876  21.184  1.00  0.00     0.020 A 
ATOM     15  C   UNL     1      28.030  42.856  22.262  1.00  0.00     0.119 A 
ATOM     16  C   UNL     1      26.754  42.288  22.246  1.00  0.00     0.093 A 
ATOM     17  C   UNL     1      26.550  41.013  21.697  1.00  0.00     0.130 A 
BRANCH  15  18
ATOM     18  O   UNL     1      28.212  44.123  22.811  1.00  0.00    -0.508 OA
ATOM     19  H   UNL     1      27.515  44.546  23.413  1.00  0.00     0.293 HD
ENDBRANCH  15  18
BRANCH  17  20
ATOM     20  O   UNL     1      25.269  40.460  21.683  1.00  0.00    -0.507 OA
ATOM     21  H   UNL     1      24.894  40.009  20.857  1.00  0.00     0.293 HD
ENDBRANCH  17  20
ENDBRANCH   1  12
BRANCH   2  22
ATOM     22  O   UNL     1      26.075  39.790  18.773  1.00  0.00    -0.502 OA
ATOM     23  H   UNL     1      26.386  40.122  17.868  1.00  0.00     0.293 HD
ENDBRANCH   2  22
BRANCH   6  24
ATOM     24  O   UNL     1      26.196  34.489  18.255  1.00  0.00    -0.507 OA
ATOM     25  H   UNL     1      25.859  33.542  18.163  1.00  0.00     0.293 HD
ENDBRANCH   6  24
BRANCH   8  26
ATOM     26  O   UNL     1      29.125  33.351  21.884  1.00  0.00    -0.508 OA
ATOM     27  H   UNL     1      29.185  33.392  22.895  1.00  0.00     0.293 HD
ENDBRANCH   8  26
TORSDOF 6
ENDMDL
MODEL 8
REMARK VINA RESULT:    -4.213      1.937      3.225
REMARK INTER + INTRA:          -5.475
REMARK INTER:                  -5.499
REMARK INTRA:                   0.024
REMARK UNBOUND:                -0.400
REMARK SMILES O=c1c(O)c(-c2ccc(O)cc2O)oc2cc(O)cc(O)c12
REMARK SMILES IDX 5 1 3 2 2 3 1 4 22 5 20 6 19 7 17 8 16 9 15 10 14 11 6 12
REMARK SMILES IDX 8 13 7 14 9 15 11 16 12 17 10 18 13 20 4 22 21 24 18 26
REMARK H PARENT 10 19 13 21 4 23 21 25 18 27
REMARK Flexibility Score: inf
ROOT
ATOM      1  C   UNL     1      27.797  38.345  20.484  1.00  0.00     0.184 A 
ATOM      2  C   UNL     1      28.452  38.262  19.245  1.00  0.00     0.208 A 
ATOM      3  C   UNL     1      28.511  39.401  18.426  1.00  0.00     0.238 A 
ATOM      4  O   UNL     1      29.037  39.300  17.287  1.00  0.00    -0.285 OA
ATOM      5  C   UNL     1      27.958  40.624  18.879  1.00  0.00     0.111 A 
ATOM      6  C   UNL     1      28.000  41.852  18.154  1.00  0.00     0.134 A 
ATOM      7  C   UNL     1      27.324  42.973  18.654  1.00  0.00     0.093 A 
ATOM      8  C   UNL     1      26.663  42.926  19.883  1.00  0.00     0.123 A 
ATOM      9  C   UNL     1      26.664  41.748  20.625  1.00  0.00     0.094 A 
ATOM     10  C   UNL     1      27.296  40.603  20.136  1.00  0.00     0.146 A 
ATOM     11  O   UNL     1      27.254  39.495  20.866  1.00  0.00    -0.451 OA
ENDROOT
BRANCH   1  12
ATOM     12  C   UNL     1      27.685  37.179  21.390  1.00  0.00     0.063 A 
ATOM     13  C   UNL     1      28.619  35.133  22.322  1.00  0.00     0.047 A 
ATOM     14  C   UNL     1      28.736  36.248  21.488  1.00  0.00     0.020 A 
ATOM     15  C   UNL     1      27.449  34.926  23.060  1.00  0.00     0.119 A 
ATOM     16  C   UNL     1      26.394  35.837  22.959  1.00  0.00     0.093 A 
ATOM     17  C   UNL     1      26.503  36.961  22.126  1.00  0.00     0.130 A 
BRANCH  15  18
ATOM     18  O   UNL     1      27.322  33.818  23.894  1.00  0.00    -0.508 OA
ATOM     19  H   UNL     1      27.816  32.953  23.705  1.00  0.00     0.293 HD
ENDBRANCH  15  18
BRANCH  17  20
ATOM     20  O   UNL     1      25.445  37.866  22.039  1.00  0.00    -0.507 OA
ATOM     21  H   UNL     1      25.601  38.853  21.879  1.00  0.00     0.293 HD
ENDBRANCH  17  20
ENDBRANCH   1  12
BRANCH   2  22
ATOM     22  O   UNL     1      29.051  37.063  18.847  1.00  0.00    -0.502 OA
ATOM     23  H   UNL     1      29.618  36.989  18.010  1.00  0.00     0.293 HD
ENDBRANCH   2  22
BRANCH   6  24
ATOM     24  O   UNL     1      28.705  42.034  16.960  1.00  0.00    -0.507 OA
ATOM     25  H   UNL     1      28.771  41.352  16.219  1.00  0.00     0.293 HD
ENDBRANCH   6  24
BRANCH   8  26
ATOM     26  O   UNL     1      26.008  44.051  20.381  1.00  0.00    -0.508 OA
ATOM     27  H   UNL     1      25.787  44.842  19.787  1.00  0.00     0.293 HD
ENDBRANCH   8  26
TORSDOF 6
ENDMDL
MODEL 9
REMARK VINA RESULT:    -3.953      2.824      6.562
REMARK INTER + INTRA:          -5.161
REMARK INTER:                  -4.755
REMARK INTRA:                  -0.406
REMARK UNBOUND:                -0.400
REMARK SMILES O=c1c(O)c(-c2ccc(O)cc2O)oc2cc(O)cc(O)c12
REMARK SMILES IDX 5 1 3 2 2 3 1 4 22 5 20 6 19 7 17 8 16 9 15 10 14 11 6 12
REMARK SMILES IDX 8 13 7 14 9 15 11 16 12 17 10 18 13 20 4 22 21 24 18 26
REMARK H PARENT 10 19 13 21 4 23 21 25 18 27
REMARK Flexibility Score: inf
ROOT
ATOM      1  C   UNL     1      27.665  41.075  21.473  1.00  0.00     0.184 A 
ATOM      2  C   UNL     1      28.271  41.394  20.247  1.00  0.00     0.208 A 
ATOM      3  C   UNL     1      28.021  40.579  19.130  1.00  0.00     0.238 A 
ATOM      4  O   UNL     1      28.624  40.829  18.054  1.00  0.00    -0.285 OA
ATOM      5  C   UNL     1      27.127  39.487  19.242  1.00  0.00     0.111 A 
ATOM      6  C   UNL     1      26.765  38.622  18.165  1.00  0.00     0.134 A 
ATOM      7  C   UNL     1      25.954  37.508  18.418  1.00  0.00     0.093 A 
ATOM      8  C   UNL     1      25.442  37.264  19.694  1.00  0.00     0.123 A 
ATOM      9  C   UNL     1      25.745  38.133  20.739  1.00  0.00     0.094 A 
ATOM     10  C   UNL     1      26.581  39.232  20.527  1.00  0.00     0.146 A 
ATOM     11  O   UNL     1      26.860  40.023  21.557  1.00  0.00    -0.451 OA
ENDROOT
BRANCH   1  12
ATOM     12  C   UNL     1      27.896  41.882  22.693  1.00  0.00     0.063 A 
ATOM     13  C   UNL     1      29.095  42.261  24.777  1.00  0.00     0.047 A 
ATOM     14  C   UNL     1      28.896  41.516  23.613  1.00  0.00     0.020 A 
ATOM     15  C   UNL     1      28.292  43.375  25.046  1.00  0.00     0.119 A 
ATOM     16  C   UNL     1      27.288  43.739  24.146  1.00  0.00     0.093 A 
ATOM     17  C   UNL     1      27.081  42.998  22.973  1.00  0.00     0.130 A 
BRANCH  15  18
ATOM     18  O   UNL     1      28.483  44.125  26.204  1.00  0.00    -0.508 OA
ATOM     19  H   UNL     1      27.856  44.881  26.456  1.00  0.00     0.293 HD
ENDBRANCH  15  18
BRANCH  17  20
ATOM     20  O   UNL     1      26.078  43.376  22.080  1.00  0.00    -0.507 OA
ATOM     21  H   UNL     1      25.117  43.492  22.378  1.00  0.00     0.293 HD
ENDBRANCH  17  20
ENDBRANCH   1  12
BRANCH   2  22
ATOM     22  O   UNL     1      29.097  42.517  20.143  1.00  0.00    -0.502 OA
ATOM     23  H   UNL     1      28.737  43.439  19.924  1.00  0.00     0.293 HD
ENDBRANCH   2  22
BRANCH   6  24
ATOM     24  O   UNL     1      27.147  38.823  16.836  1.00  0.00    -0.507 OA
ATOM     25  H   UNL     1      26.512  39.019  16.076  1.00  0.00     0.293 HD
ENDBRANCH   6  24
BRANCH   8  26
ATOM     26  O   UNL     1      24.623  36.162  19.933  1.00  0.00    -0.508 OA
ATOM     27  H   UNL     1      23.827  35.956  19.341  1.00  0.00     0.293 HD
ENDBRANCH   8  26
TORSDOF 6
ENDMDL
