MODEL 1
REMARK VINA RESULT:    -3.684      0.000      0.000
REMARK INTER + INTRA:          -3.684
REMARK INTER:                  -3.684
REMARK INTRA:                   0.000
REMARK UNBOUND:                 0.000
REMARK SMILES C=C1CC[C@@H]2C[C@H]1C2(C)C
REMARK SMILES IDX 9 1 8 2 5 3 4 4 3 5 2 6 1 7 7 8 6 9 10 10
REMARK H PARENT
REMARK Flexibility Score: inf
ROOT
ATOM      1  C   UNL     1      19.488  62.734  13.885  1.00  0.00     0.012 C 
ATOM      2  C   UNL     1      20.583  63.429  14.733  1.00  0.00    -0.026 C 
ATOM      3  C   UNL     1      20.301  64.943  14.915  1.00  0.00    -0.004 C 
ATOM      4  C   UNL     1      21.578  65.697  15.405  1.00  0.00     0.008 C 
ATOM      5  C   UNL     1      22.233  65.020  16.668  1.00  0.00     0.031 C 
ATOM      6  C   UNL     1      21.567  63.682  17.025  1.00  0.00    -0.074 C 
ATOM      7  C   UNL     1      22.068  62.888  17.977  1.00  0.00     0.008 C 
ATOM      8  C   UNL     1      20.309  63.304  16.250  1.00  0.00     0.021 C 
ATOM      9  C   UNL     1      19.485  64.599  16.173  1.00  0.00     0.012 C 
ATOM     10  C   UNL     1      21.972  62.990  14.195  1.00  0.00     0.012 C 
ENDROOT
TORSDOF 0
ENDMDL
MODEL 2
REMARK VINA RESULT:    -3.651      0.945      3.195
REMARK INTER + INTRA:          -3.651
REMARK INTER:                  -3.651
REMARK INTRA:                   0.000
REMARK UNBOUND:                 0.000
REMARK SMILES C=C1CC[C@@H]2C[C@H]1C2(C)C
REMARK SMILES IDX 9 1 8 2 5 3 4 4 3 5 2 6 1 7 7 8 6 9 10 10
REMARK H PARENT
REMARK Flexibility Score: inf
ROOT
ATOM      1  C   UNL     1      22.750  62.852  17.585  1.00  0.00     0.012 C 
ATOM      2  C   UNL     1      21.545  63.503  16.859  1.00  0.00    -0.026 C 
ATOM      3  C   UNL     1      21.842  64.965  16.440  1.00  0.00    -0.004 C 
ATOM      4  C   UNL     1      20.525  65.727  16.088  1.00  0.00     0.008 C 
ATOM      5  C   UNL     1      19.630  64.943  15.055  1.00  0.00     0.031 C 
ATOM      6  C   UNL     1      20.174  63.536  14.762  1.00  0.00    -0.074 C 
ATOM      7  C   UNL     1      19.482  62.664  14.021  1.00  0.00     0.008 C 
ATOM      8  C   UNL     1      21.537  63.182  15.346  1.00  0.00     0.021 C 
ATOM      9  C   UNL     1      22.405  64.428  15.113  1.00  0.00     0.012 C 
ATOM     10  C   UNL     1      20.262  63.210  17.683  1.00  0.00     0.012 C 
ENDROOT
TORSDOF 0
ENDMDL
MODEL 3
REMARK VINA RESULT:    -3.602      1.227      2.271
REMARK INTER + INTRA:          -3.602
REMARK INTER:                  -3.602
REMARK INTRA:                   0.000
REMARK UNBOUND:                 0.000
REMARK SMILES C=C1CC[C@@H]2C[C@H]1C2(C)C
REMARK SMILES IDX 9 1 8 2 5 3 4 4 3 5 2 6 1 7 7 8 6 9 10 10
REMARK H PARENT
REMARK Flexibility Score: inf
ROOT
ATOM      1  C   UNL     1      20.976  65.024  12.520  1.00  0.00     0.012 C 
ATOM      2  C   UNL     1      20.920  64.745  14.043  1.00  0.00    -0.026 C 
ATOM      3  C   UNL     1      19.545  64.178  14.478  1.00  0.00    -0.004 C 
ATOM      4  C   UNL     1      19.359  64.282  16.025  1.00  0.00     0.008 C 
ATOM      5  C   UNL     1      20.574  63.675  16.824  1.00  0.00     0.031 C 
ATOM      6  C   UNL     1      21.736  63.274  15.901  1.00  0.00    -0.074 C 
ATOM      7  C   UNL     1      22.911  62.871  16.398  1.00  0.00     0.008 C 
ATOM      8  C   UNL     1      21.489  63.352  14.399  1.00  0.00     0.021 C 
ATOM      9  C   UNL     1      20.083  62.765  14.196  1.00  0.00     0.012 C 
ATOM     10  C   UNL     1      21.484  65.985  14.788  1.00  0.00     0.012 C 
ENDROOT
TORSDOF 0
ENDMDL
MODEL 4
REMARK VINA RESULT:    -3.525      1.243      3.217
REMARK INTER + INTRA:          -3.525
REMARK INTER:                  -3.525
REMARK INTRA:                   0.000
REMARK UNBOUND:                 0.000
REMARK SMILES C=C1CC[C@@H]2C[C@H]1C2(C)C
REMARK SMILES IDX 9 1 8 2 5 3 4 4 3 5 2 6 1 7 7 8 6 9 10 10
REMARK H PARENT
REMARK Flexibility Score: inf
ROOT
ATOM      1  C   UNL     1      20.392  66.026  16.950  1.00  0.00     0.012 C 
ATOM      2  C   UNL     1      20.245  64.756  16.075  1.00  0.00    -0.026 C 
ATOM      3  C   UNL     1      19.117  64.904  15.022  1.00  0.00    -0.004 C 
ATOM      4  C   UNL     1      18.710  63.515  14.435  1.00  0.00     0.008 C 
ATOM      5  C   UNL     1      19.950  62.690  13.920  1.00  0.00     0.031 C 
ATOM      6  C   UNL     1      21.286  63.366  14.267  1.00  0.00    -0.074 C 
ATOM      7  C   UNL     1      22.454  62.755  14.041  1.00  0.00     0.008 C 
ATOM      8  C   UNL     1      21.221  64.763  14.874  1.00  0.00     0.021 C 
ATOM      9  C   UNL     1      20.152  65.503  14.055  1.00  0.00     0.012 C 
ATOM     10  C   UNL     1      20.234  63.516  17.010  1.00  0.00     0.012 C 
ENDROOT
TORSDOF 0
ENDMDL
MODEL 5
REMARK VINA RESULT:    -3.515      1.353      2.268
REMARK INTER + INTRA:          -3.515
REMARK INTER:                  -3.515
REMARK INTRA:                   0.000
REMARK UNBOUND:                 0.000
REMARK SMILES C=C1CC[C@@H]2C[C@H]1C2(C)C
REMARK SMILES IDX 9 1 8 2 5 3 4 4 3 5 2 6 1 7 7 8 6 9 10 10
REMARK H PARENT
REMARK Flexibility Score: inf
ROOT
ATOM      1  C   UNL     1      22.673  62.751  13.883  1.00  0.00     0.012 C 
ATOM      2  C   UNL     1      21.718  63.791  14.521  1.00  0.00    -0.026 C 
ATOM      3  C   UNL     1      20.600  64.229  13.541  1.00  0.00    -0.004 C 
ATOM      4  C   UNL     1      19.907  65.541  14.028  1.00  0.00     0.008 C 
ATOM      5  C   UNL     1      19.432  65.452  15.529  1.00  0.00     0.031 C 
ATOM      6  C   UNL     1      19.910  64.164  16.217  1.00  0.00    -0.074 C 
ATOM      7  C   UNL     1      19.731  63.968  17.527  1.00  0.00     0.008 C 
ATOM      8  C   UNL     1      20.591  63.119  15.339  1.00  0.00     0.021 C 
ATOM      9  C   UNL     1      19.743  63.061  14.059  1.00  0.00     0.012 C 
ATOM     10  C   UNL     1      22.577  64.887  15.208  1.00  0.00     0.012 C 
ENDROOT
TORSDOF 0
ENDMDL
MODEL 6
REMARK VINA RESULT:    -3.508      1.189      3.434
REMARK INTER + INTRA:          -3.508
REMARK INTER:                  -3.508
REMARK INTRA:                   0.000
REMARK UNBOUND:                 0.000
REMARK SMILES C=C1CC[C@@H]2C[C@H]1C2(C)C
REMARK SMILES IDX 9 1 8 2 5 3 4 4 3 5 2 6 1 7 7 8 6 9 10 10
REMARK H PARENT
REMARK Flexibility Score: inf
ROOT
ATOM      1  C   UNL     1      22.174  65.907  15.678  1.00  0.00     0.012 C 
ATOM      2  C   UNL     1      21.143  65.021  14.935  1.00  0.00    -0.026 C 
ATOM      3  C   UNL     1      21.471  63.512  15.070  1.00  0.00    -0.004 C 
ATOM      4  C   UNL     1      20.692  62.670  14.011  1.00  0.00     0.008 C 
ATOM      5  C   UNL     1      19.147  62.983  14.008  1.00  0.00     0.031 C 
ATOM      6  C   UNL     1      18.788  64.162  14.926  1.00  0.00    -0.074 C 
ATOM      7  C   UNL     1      17.552  64.671  14.953  1.00  0.00     0.008 C 
ATOM      8  C   UNL     1      19.901  64.720  15.806  1.00  0.00     0.021 C 
ATOM      9  C   UNL     1      20.630  63.485  16.358  1.00  0.00     0.012 C 
ATOM     10  C   UNL     1      20.924  65.611  13.516  1.00  0.00     0.012 C 
ENDROOT
TORSDOF 0
ENDMDL
MODEL 7
REMARK VINA RESULT:    -3.399      1.145      2.659
REMARK INTER + INTRA:          -3.399
REMARK INTER:                  -3.399
REMARK INTRA:                   0.000
REMARK UNBOUND:                 0.000
REMARK SMILES C=C1CC[C@@H]2C[C@H]1C2(C)C
REMARK SMILES IDX 9 1 8 2 5 3 4 4 3 5 2 6 1 7 7 8 6 9 10 10
REMARK H PARENT
REMARK Flexibility Score: inf
ROOT
ATOM      1  C   UNL     1      20.866  64.595  12.899  1.00  0.00     0.012 C 
ATOM      2  C   UNL     1      20.444  64.141  14.320  1.00  0.00    -0.026 C 
ATOM      3  C   UNL     1      21.612  64.248  15.333  1.00  0.00    -0.004 C 
ATOM      4  C   UNL     1      21.310  63.426  16.627  1.00  0.00     0.008 C 
ATOM      5  C   UNL     1      19.903  63.770  17.247  1.00  0.00     0.031 C 
ATOM      6  C   UNL     1      19.081  64.706  16.346  1.00  0.00    -0.074 C 
ATOM      7  C   UNL     1      17.808  65.001  16.628  1.00  0.00     0.008 C 
ATOM      8  C   UNL     1      19.783  65.285  15.123  1.00  0.00     0.021 C 
ATOM      9  C   UNL     1      21.178  65.695  15.621  1.00  0.00     0.012 C 
ATOM     10  C   UNL     1      19.686  62.791  14.196  1.00  0.00     0.012 C 
ENDROOT
TORSDOF 0
ENDMDL
MODEL 8
REMARK VINA RESULT:    -3.397      1.433      3.414
REMARK INTER + INTRA:          -3.397
REMARK INTER:                  -3.397
REMARK INTRA:                   0.000
REMARK UNBOUND:                 0.000
REMARK SMILES C=C1CC[C@@H]2C[C@H]1C2(C)C
REMARK SMILES IDX 9 1 8 2 5 3 4 4 3 5 2 6 1 7 7 8 6 9 10 10
REMARK H PARENT
REMARK Flexibility Score: inf
ROOT
ATOM      1  C   UNL     1      18.441  64.690  16.146  1.00  0.00     0.012 C 
ATOM      2  C   UNL     1      19.800  64.573  15.410  1.00  0.00    -0.026 C 
ATOM      3  C   UNL     1      20.375  63.135  15.480  1.00  0.00    -0.004 C 
ATOM      4  C   UNL     1      21.891  63.117  15.106  1.00  0.00     0.008 C 
ATOM      5  C   UNL     1      22.187  63.850  13.743  1.00  0.00     0.031 C 
ATOM      6  C   UNL     1      20.945  64.558  13.180  1.00  0.00    -0.074 C 
ATOM      7  C   UNL     1      21.023  65.352  12.106  1.00  0.00     0.008 C 
ATOM      8  C   UNL     1      19.621  64.314  13.896  1.00  0.00     0.021 C 
ATOM      9  C   UNL     1      19.602  62.806  14.192  1.00  0.00     0.012 C 
ATOM     10  C   UNL     1      20.701  65.757  15.855  1.00  0.00     0.012 C 
ENDROOT
TORSDOF 0
ENDMDL
MODEL 9
REMARK VINA RESULT:    -3.347      1.252      2.995
REMARK INTER + INTRA:          -3.347
REMARK INTER:                  -3.347
REMARK INTRA:                   0.000
REMARK UNBOUND:                 0.000
REMARK SMILES C=C1CC[C@@H]2C[C@H]1C2(C)C
REMARK SMILES IDX 9 1 8 2 5 3 4 4 3 5 2 6 1 7 7 8 6 9 10 10
REMARK H PARENT
REMARK Flexibility Score: inf
ROOT
ATOM      1  C   UNL     1      23.405  64.848  12.914  1.00  0.00     0.012 C 
ATOM      2  C   UNL     1      22.465  64.166  13.940  1.00  0.00    -0.026 C 
ATOM      3  C   UNL     1      22.196  65.069  15.170  1.00  0.00    -0.004 C 
ATOM      4  C   UNL     1      21.602  64.243  16.355  1.00  0.00     0.008 C 
ATOM      5  C   UNL     1      20.358  63.376  15.924  1.00  0.00     0.031 C 
ATOM      6  C   UNL     1      20.121  63.410  14.406  1.00  0.00    -0.074 C 
ATOM      7  C   UNL     1      19.203  62.629  13.828  1.00  0.00     0.008 C 
ATOM      8  C   UNL     1      20.974  64.377  13.591  1.00  0.00     0.021 C 
ATOM      9  C   UNL     1      21.001  65.674  14.415  1.00  0.00     0.012 C 
ATOM     10  C   UNL     1      22.970  62.716  14.177  1.00  0.00     0.012 C 
ENDROOT
TORSDOF 0
ENDMDL
