MODEL 1
REMARK VINA RESULT:    -5.823      0.000      0.000
REMARK INTER + INTRA:         -11.843
REMARK INTER:                  -9.908
REMARK INTRA:                  -1.935
REMARK UNBOUND:                -1.935
REMARK SMILES CCCCCCCCCCCCCC(=O)[O-]
REMARK SMILES IDX 8 1 9 2 10 3 11 4 12 5 13 6 14 7 15 8 16 9 7 10 6 11 5 12
REMARK SMILES IDX 4 13 3 14 2 15 1 16
REMARK H PARENT
REMARK Flexibility Score: inf
ROOT
ATOM      1  C   UNL     1       9.499  71.323  -4.253  1.00  0.00     0.000 C 
ENDROOT
BRANCH   1   2
ATOM      2  C   UNL     1      10.592  71.703  -3.236  1.00  0.00     0.000 C 
BRANCH   2   3
ATOM      3  C   UNL     1      10.207  72.815  -2.243  1.00  0.00     0.000 C 
BRANCH   3   4
ATOM      4  C   UNL     1       8.725  73.208  -2.325  1.00  0.00     0.000 C 
BRANCH   4   5
ATOM      5  C   UNL     1       8.567  74.679  -2.736  1.00  0.00     0.006 C 
BRANCH   5   6
ATOM      6  C   UNL     1       7.099  75.068  -2.955  1.00  0.00     0.053 C 
BRANCH   6   7
ATOM      7  C   UNL     1       6.318  75.035  -1.678  1.00  0.00     0.041 C 
ATOM      8  O   UNL     1       6.746  75.638  -0.658  1.00  0.00    -0.550 OA
ATOM      9  O   UNL     1       5.134  74.312  -1.603  1.00  0.00    -0.550 OA
ENDBRANCH   6   7
ENDBRANCH   5   6
ENDBRANCH   4   5
ENDBRANCH   3   4
ENDBRANCH   2   3
ENDBRANCH   1   2
BRANCH   1  10
ATOM     10  C   UNL     1       9.841  71.755  -5.689  1.00  0.00     0.000 C 
BRANCH  10  11
ATOM     11  C   UNL     1       9.105  73.038  -6.120  1.00  0.00    -0.000 C 
BRANCH  11  12
ATOM     12  C   UNL     1       9.963  74.317  -6.126  1.00  0.00    -0.000 C 
BRANCH  12  13
ATOM     13  C   UNL     1      11.463  74.036  -5.953  1.00  0.00    -0.000 C 
BRANCH  13  14
ATOM     14  C   UNL     1      12.039  74.826  -4.772  1.00  0.00    -0.000 C 
BRANCH  14  15
ATOM     15  C   UNL     1      13.540  74.564  -4.613  1.00  0.00    -0.003 C 
ATOM     16  C   UNL     1      13.799  73.387  -3.678  1.00  0.00     0.004 C 
ENDBRANCH  14  15
ENDBRANCH  13  14
ENDBRANCH  12  13
ENDBRANCH  11  12
ENDBRANCH  10  11
ENDBRANCH   1  10
TORSDOF 12
ENDMDL
MODEL 2
REMARK VINA RESULT:    -5.807      0.967      1.846
REMARK INTER + INTRA:         -11.815
REMARK INTER:                  -9.825
REMARK INTRA:                  -1.990
REMARK UNBOUND:                -1.935
REMARK SMILES CCCCCCCCCCCCCC(=O)[O-]
REMARK SMILES IDX 8 1 9 2 10 3 11 4 12 5 13 6 14 7 15 8 16 9 7 10 6 11 5 12
REMARK SMILES IDX 4 13 3 14 2 15 1 16
REMARK H PARENT
REMARK Flexibility Score: inf
ROOT
ATOM      1  C   UNL     1       9.814  71.728  -5.845  1.00  0.00     0.000 C 
ENDROOT
BRANCH   1   2
ATOM      2  C   UNL     1       9.363  71.218  -4.463  1.00  0.00     0.000 C 
BRANCH   2   3
ATOM      3  C   UNL     1      10.314  71.550  -3.298  1.00  0.00     0.000 C 
BRANCH   3   4
ATOM      4  C   UNL     1       9.612  72.264  -2.134  1.00  0.00     0.000 C 
BRANCH   4   5
ATOM      5  C   UNL     1       9.587  73.782  -2.355  1.00  0.00     0.006 C 
BRANCH   5   6
ATOM      6  C   UNL     1       8.217  74.278  -2.838  1.00  0.00     0.053 C 
BRANCH   6   7
ATOM      7  C   UNL     1       7.451  74.949  -1.740  1.00  0.00     0.041 C 
ATOM      8  O   UNL     1       6.192  74.981  -1.774  1.00  0.00    -0.550 OA
ATOM      9  O   UNL     1       8.126  75.568  -0.695  1.00  0.00    -0.550 OA
ENDBRANCH   6   7
ENDBRANCH   5   6
ENDBRANCH   4   5
ENDBRANCH   3   4
ENDBRANCH   2   3
ENDBRANCH   1   2
BRANCH   1  10
ATOM     10  C   UNL     1       9.292  73.140  -6.162  1.00  0.00     0.000 C 
BRANCH  10  11
ATOM     11  C   UNL     1      10.377  74.224  -6.027  1.00  0.00    -0.000 C 
BRANCH  11  12
ATOM     12  C   UNL     1      11.825  73.704  -5.984  1.00  0.00    -0.000 C 
BRANCH  12  13
ATOM     13  C   UNL     1      12.711  74.471  -4.991  1.00  0.00    -0.000 C 
BRANCH  13  14
ATOM     14  C   UNL     1      13.428  73.510  -4.035  1.00  0.00    -0.000 C 
BRANCH  14  15
ATOM     15  C   UNL     1      13.253  73.950  -2.578  1.00  0.00    -0.003 C 
ATOM     16  C   UNL     1      13.472  72.784  -1.619  1.00  0.00     0.004 C 
ENDBRANCH  14  15
ENDBRANCH  13  14
ENDBRANCH  12  13
ENDBRANCH  11  12
ENDBRANCH  10  11
ENDBRANCH   1  10
TORSDOF 12
ENDMDL
MODEL 3
REMARK VINA RESULT:    -5.630      3.013      5.588
REMARK INTER + INTRA:         -11.514
REMARK INTER:                  -9.811
REMARK INTRA:                  -1.703
REMARK UNBOUND:                -1.935
REMARK SMILES CCCCCCCCCCCCCC(=O)[O-]
REMARK SMILES IDX 8 1 9 2 10 3 11 4 12 5 13 6 14 7 15 8 16 9 7 10 6 11 5 12
REMARK SMILES IDX 4 13 3 14 2 15 1 16
REMARK H PARENT
REMARK Flexibility Score: inf
ROOT
ATOM      1  C   UNL     1       9.539  71.722  -5.740  1.00  0.00     0.000 C 
ENDROOT
BRANCH   1   2
ATOM      2  C   UNL     1       8.785  73.063  -5.815  1.00  0.00     0.000 C 
BRANCH   2   3
ATOM      3  C   UNL     1       9.612  74.253  -6.336  1.00  0.00     0.000 C 
BRANCH   3   4
ATOM      4  C   UNL     1      10.731  74.675  -5.373  1.00  0.00     0.000 C 
BRANCH   4   5
ATOM      5  C   UNL     1      12.112  74.352  -5.959  1.00  0.00     0.006 C 
BRANCH   5   6
ATOM      6  C   UNL     1      12.824  73.231  -5.190  1.00  0.00     0.053 C 
BRANCH   6   7
ATOM      7  C   UNL     1      13.629  73.766  -4.046  1.00  0.00     0.041 C 
ATOM      8  O   UNL     1      13.698  73.125  -2.965  1.00  0.00    -0.550 OA
ATOM      9  O   UNL     1      14.277  74.990  -4.162  1.00  0.00    -0.550 OA
ENDBRANCH   6   7
ENDBRANCH   5   6
ENDBRANCH   4   5
ENDBRANCH   3   4
ENDBRANCH   2   3
ENDBRANCH   1   2
BRANCH   1  10
ATOM     10  C   UNL     1       9.497  71.089  -4.339  1.00  0.00     0.000 C 
BRANCH  10  11
ATOM     11  C   UNL     1      10.108  71.993  -3.253  1.00  0.00    -0.000 C 
BRANCH  11  12
ATOM     12  C   UNL     1       9.109  72.541  -2.216  1.00  0.00    -0.000 C 
BRANCH  12  13
ATOM     13  C   UNL     1       8.848  74.047  -2.369  1.00  0.00    -0.000 C 
BRANCH  13  14
ATOM     14  C   UNL     1       7.390  74.389  -2.042  1.00  0.00    -0.000 C 
BRANCH  14  15
ATOM     15  C   UNL     1       6.719  75.116  -3.211  1.00  0.00    -0.003 C 
ATOM     16  C   UNL     1       7.639  76.179  -3.802  1.00  0.00     0.004 C 
ENDBRANCH  14  15
ENDBRANCH  13  14
ENDBRANCH  12  13
ENDBRANCH  11  12
ENDBRANCH  10  11
ENDBRANCH   1  10
TORSDOF 12
ENDMDL
MODEL 4
REMARK VINA RESULT:    -5.590      1.505      2.684
REMARK INTER + INTRA:         -11.447
REMARK INTER:                  -9.466
REMARK INTRA:                  -1.982
REMARK UNBOUND:                -1.935
REMARK SMILES CCCCCCCCCCCCCC(=O)[O-]
REMARK SMILES IDX 8 1 9 2 10 3 11 4 12 5 13 6 14 7 15 8 16 9 7 10 6 11 5 12
REMARK SMILES IDX 4 13 3 14 2 15 1 16
REMARK H PARENT
REMARK Flexibility Score: inf
ROOT
ATOM      1  C   UNL     1       8.629  72.888  -6.286  1.00  0.00     0.000 C 
ENDROOT
BRANCH   1   2
ATOM      2  C   UNL     1       8.973  74.389  -6.235  1.00  0.00     0.000 C 
BRANCH   2   3
ATOM      3  C   UNL     1       8.906  75.031  -4.837  1.00  0.00     0.000 C 
BRANCH   3   4
ATOM      4  C   UNL     1       7.682  74.580  -4.026  1.00  0.00     0.000 C 
BRANCH   4   5
ATOM      5  C   UNL     1       8.029  74.443  -2.537  1.00  0.00     0.006 C 
BRANCH   5   6
ATOM      6  C   UNL     1       7.086  75.257  -1.642  1.00  0.00     0.053 C 
BRANCH   6   7
ATOM      7  C   UNL     1       7.701  76.556  -1.223  1.00  0.00     0.041 C 
ATOM      8  O   UNL     1       7.929  77.454  -2.076  1.00  0.00    -0.550 OA
ATOM      9  O   UNL     1       8.054  76.765   0.105  1.00  0.00    -0.550 OA
ENDBRANCH   6   7
ENDBRANCH   5   6
ENDBRANCH   4   5
ENDBRANCH   3   4
ENDBRANCH   2   3
ENDBRANCH   1   2
BRANCH   1  10
ATOM     10  C   UNL     1       9.793  71.990  -5.837  1.00  0.00     0.000 C 
BRANCH  10  11
ATOM     11  C   UNL     1       9.526  71.289  -4.492  1.00  0.00    -0.000 C 
BRANCH  11  12
ATOM     12  C   UNL     1      10.474  71.685  -3.345  1.00  0.00    -0.000 C 
BRANCH  12  13
ATOM     13  C   UNL     1      11.744  72.399  -3.833  1.00  0.00    -0.000 C 
BRANCH  13  14
ATOM     14  C   UNL     1      11.884  73.780  -3.183  1.00  0.00    -0.000 C 
BRANCH  14  15
ATOM     15  C   UNL     1      12.591  74.762  -4.122  1.00  0.00    -0.003 C 
ATOM     16  C   UNL     1      12.483  74.312  -5.575  1.00  0.00     0.004 C 
ENDBRANCH  14  15
ENDBRANCH  13  14
ENDBRANCH  12  13
ENDBRANCH  11  12
ENDBRANCH  10  11
ENDBRANCH   1  10
TORSDOF 12
ENDMDL
MODEL 5
REMARK VINA RESULT:    -5.587      2.619      4.946
REMARK INTER + INTRA:         -11.443
REMARK INTER:                  -9.320
REMARK INTRA:                  -2.123
REMARK UNBOUND:                -1.935
REMARK SMILES CCCCCCCCCCCCCC(=O)[O-]
REMARK SMILES IDX 8 1 9 2 10 3 11 4 12 5 13 6 14 7 15 8 16 9 7 10 6 11 5 12
REMARK SMILES IDX 4 13 3 14 2 15 1 16
REMARK H PARENT
REMARK Flexibility Score: inf
ROOT
ATOM      1  C   UNL     1       9.579  74.338  -5.945  1.00  0.00     0.000 C 
ENDROOT
BRANCH   1   2
ATOM      2  C   UNL     1      11.062  74.098  -6.288  1.00  0.00     0.000 C 
BRANCH   2   3
ATOM      3  C   UNL     1      12.056  74.399  -5.151  1.00  0.00     0.000 C 
BRANCH   3   4
ATOM      4  C   UNL     1      13.109  73.297  -4.964  1.00  0.00     0.000 C 
BRANCH   4   5
ATOM      5  C   UNL     1      13.696  73.332  -3.546  1.00  0.00     0.006 C 
BRANCH   5   6
ATOM      6  C   UNL     1      13.271  74.587  -2.771  1.00  0.00     0.053 C 
BRANCH   6   7
ATOM      7  C   UNL     1      12.988  74.282  -1.333  1.00  0.00     0.041 C 
ATOM      8  O   UNL     1      13.047  75.196  -0.468  1.00  0.00    -0.550 OA
ATOM      9  O   UNL     1      12.692  72.983  -0.940  1.00  0.00    -0.550 OA
ENDBRANCH   6   7
ENDBRANCH   5   6
ENDBRANCH   4   5
ENDBRANCH   3   4
ENDBRANCH   2   3
ENDBRANCH   1   2
BRANCH   1  10
ATOM     10  C   UNL     1       8.749  73.043  -5.936  1.00  0.00     0.000 C 
BRANCH  10  11
ATOM     11  C   UNL     1       9.612  71.778  -5.775  1.00  0.00    -0.000 C 
BRANCH  11  12
ATOM     12  C   UNL     1       9.485  71.065  -4.416  1.00  0.00    -0.000 C 
BRANCH  12  13
ATOM     13  C   UNL     1      10.289  71.749  -3.300  1.00  0.00    -0.000 C 
BRANCH  13  14
ATOM     14  C   UNL     1       9.358  72.349  -2.240  1.00  0.00    -0.000 C 
BRANCH  14  15
ATOM     15  C   UNL     1       9.358  73.879  -2.310  1.00  0.00    -0.003 C 
ATOM     16  C   UNL     1       7.944  74.424  -2.484  1.00  0.00     0.004 C 
ENDBRANCH  14  15
ENDBRANCH  13  14
ENDBRANCH  12  13
ENDBRANCH  11  12
ENDBRANCH  10  11
ENDBRANCH   1  10
TORSDOF 12
ENDMDL
MODEL 6
REMARK VINA RESULT:    -5.507      1.221      2.891
REMARK INTER + INTRA:         -11.306
REMARK INTER:                  -9.588
REMARK INTRA:                  -1.718
REMARK UNBOUND:                -1.935
REMARK SMILES CCCCCCCCCCCCCC(=O)[O-]
REMARK SMILES IDX 8 1 9 2 10 3 11 4 12 5 13 6 14 7 15 8 16 9 7 10 6 11 5 12
REMARK SMILES IDX 4 13 3 14 2 15 1 16
REMARK H PARENT
REMARK Flexibility Score: inf
ROOT
ATOM      1  C   UNL     1       9.114  72.602  -5.754  1.00  0.00     0.000 C 
ENDROOT
BRANCH   1   2
ATOM      2  C   UNL     1       8.979  74.061  -6.229  1.00  0.00     0.000 C 
BRANCH   2   3
ATOM      3  C   UNL     1       8.495  75.058  -5.158  1.00  0.00     0.000 C 
BRANCH   3   4
ATOM      4  C   UNL     1       8.021  74.373  -3.868  1.00  0.00     0.000 C 
BRANCH   4   5
ATOM      5  C   UNL     1       7.241  75.353  -2.980  1.00  0.00     0.006 C 
BRANCH   5   6
ATOM      6  C   UNL     1       7.197  74.901  -1.514  1.00  0.00     0.053 C 
BRANCH   6   7
ATOM      7  C   UNL     1       5.796  74.862  -0.987  1.00  0.00     0.041 C 
ATOM      8  O   UNL     1       5.541  75.302   0.165  1.00  0.00    -0.550 OA
ATOM      9  O   UNL     1       4.778  74.309  -1.753  1.00  0.00    -0.550 OA
ENDBRANCH   6   7
ENDBRANCH   5   6
ENDBRANCH   4   5
ENDBRANCH   3   4
ENDBRANCH   2   3
ENDBRANCH   1   2
BRANCH   1  10
ATOM     10  C   UNL     1      10.550  72.065  -5.870  1.00  0.00     0.000 C 
BRANCH  10  11
ATOM     11  C   UNL     1      11.612  73.181  -5.853  1.00  0.00    -0.000 C 
BRANCH  11  12
ATOM     12  C   UNL     1      12.304  73.407  -4.496  1.00  0.00    -0.000 C 
BRANCH  12  13
ATOM     13  C   UNL     1      11.857  72.409  -3.418  1.00  0.00    -0.000 C 
BRANCH  13  14
ATOM     14  C   UNL     1      11.114  73.121  -2.282  1.00  0.00    -0.000 C 
BRANCH  14  15
ATOM     15  C   UNL     1       9.965  72.259  -1.749  1.00  0.00    -0.003 C 
ATOM     16  C   UNL     1       9.841  70.958  -2.535  1.00  0.00     0.004 C 
ENDBRANCH  14  15
ENDBRANCH  13  14
ENDBRANCH  12  13
ENDBRANCH  11  12
ENDBRANCH  10  11
ENDBRANCH   1  10
TORSDOF 12
ENDMDL
MODEL 7
REMARK VINA RESULT:    -5.506      1.496      3.349
REMARK INTER + INTRA:         -11.304
REMARK INTER:                  -9.640
REMARK INTRA:                  -1.664
REMARK UNBOUND:                -1.935
REMARK SMILES CCCCCCCCCCCCCC(=O)[O-]
REMARK SMILES IDX 8 1 9 2 10 3 11 4 12 5 13 6 14 7 15 8 16 9 7 10 6 11 5 12
REMARK SMILES IDX 4 13 3 14 2 15 1 16
REMARK H PARENT
REMARK Flexibility Score: inf
ROOT
ATOM      1  C   UNL     1       9.467  71.338  -4.356  1.00  0.00     0.000 C 
ENDROOT
BRANCH   1   2
ATOM      2  C   UNL     1       9.512  71.723  -5.847  1.00  0.00     0.000 C 
BRANCH   2   3
ATOM      3  C   UNL     1       8.681  72.962  -6.231  1.00  0.00     0.000 C 
BRANCH   3   4
ATOM      4  C   UNL     1       9.417  74.284  -5.971  1.00  0.00     0.000 C 
BRANCH   4   5
ATOM      5  C   UNL     1       8.714  75.099  -4.876  1.00  0.00     0.006 C 
BRANCH   5   6
ATOM      6  C   UNL     1       9.573  75.238  -3.612  1.00  0.00     0.053 C 
BRANCH   6   7
ATOM      7  C   UNL     1       8.792  74.928  -2.373  1.00  0.00     0.041 C 
ATOM      8  O   UNL     1       8.049  73.913  -2.329  1.00  0.00    -0.550 OA
ATOM      9  O   UNL     1       8.859  75.778  -1.275  1.00  0.00    -0.550 OA
ENDBRANCH   6   7
ENDBRANCH   5   6
ENDBRANCH   4   5
ENDBRANCH   3   4
ENDBRANCH   2   3
ENDBRANCH   1   2
BRANCH   1  10
ATOM     10  C   UNL     1      10.746  71.729  -3.597  1.00  0.00     0.000 C 
BRANCH  10  11
ATOM     11  C   UNL     1      10.619  71.545  -2.073  1.00  0.00    -0.000 C 
BRANCH  11  12
ATOM     12  C   UNL     1      11.400  72.564  -1.222  1.00  0.00    -0.000 C 
BRANCH  12  13
ATOM     13  C   UNL     1      12.923  72.432  -1.372  1.00  0.00    -0.000 C 
BRANCH  13  14
ATOM     14  C   UNL     1      13.522  73.684  -2.025  1.00  0.00    -0.000 C 
BRANCH  14  15
ATOM     15  C   UNL     1      13.888  73.419  -3.489  1.00  0.00    -0.003 C 
ATOM     16  C   UNL     1      13.167  74.387  -4.423  1.00  0.00     0.004 C 
ENDBRANCH  14  15
ENDBRANCH  13  14
ENDBRANCH  12  13
ENDBRANCH  11  12
ENDBRANCH  10  11
ENDBRANCH   1  10
TORSDOF 12
ENDMDL
MODEL 8
REMARK VINA RESULT:    -5.461      2.402      5.344
REMARK INTER + INTRA:         -11.227
REMARK INTER:                 -10.109
REMARK INTRA:                  -1.118
REMARK UNBOUND:                -1.935
REMARK SMILES CCCCCCCCCCCCCC(=O)[O-]
REMARK SMILES IDX 8 1 9 2 10 3 11 4 12 5 13 6 14 7 15 8 16 9 7 10 6 11 5 12
REMARK SMILES IDX 4 13 3 14 2 15 1 16
REMARK H PARENT
REMARK Flexibility Score: inf
ROOT
ATOM      1  C   UNL     1       8.589  72.950  -6.234  1.00  0.00     0.000 C 
ENDROOT
BRANCH   1   2
ATOM      2  C   UNL     1       9.647  71.899  -5.851  1.00  0.00     0.000 C 
BRANCH   2   3
ATOM      3  C   UNL     1       9.530  71.339  -4.421  1.00  0.00     0.000 C 
BRANCH   3   4
ATOM      4  C   UNL     1      10.690  71.766  -3.510  1.00  0.00     0.000 C 
BRANCH   4   5
ATOM      5  C   UNL     1      11.693  72.645  -4.272  1.00  0.00     0.006 C 
BRANCH   5   6
ATOM      6  C   UNL     1      12.802  73.187  -3.361  1.00  0.00     0.053 C 
BRANCH   6   7
ATOM      7  C   UNL     1      12.245  73.979  -2.219  1.00  0.00     0.041 C 
ATOM      8  O   UNL     1      12.474  73.625  -1.032  1.00  0.00    -0.550 OA
ATOM      9  O   UNL     1      11.446  75.089  -2.463  1.00  0.00    -0.550 OA
ENDBRANCH   6   7
ENDBRANCH   5   6
ENDBRANCH   4   5
ENDBRANCH   3   4
ENDBRANCH   2   3
ENDBRANCH   1   2
BRANCH   1  10
ATOM     10  C   UNL     1       9.138  74.386  -6.221  1.00  0.00     0.000 C 
BRANCH  10  11
ATOM     11  C   UNL     1       8.452  75.282  -5.173  1.00  0.00    -0.000 C 
BRANCH  11  12
ATOM     12  C   UNL     1       8.175  74.610  -3.815  1.00  0.00    -0.000 C 
BRANCH  12  13
ATOM     13  C   UNL     1       6.902  75.133  -3.134  1.00  0.00    -0.000 C 
BRANCH  13  14
ATOM     14  C   UNL     1       6.842  74.693  -1.666  1.00  0.00    -0.000 C 
BRANCH  14  15
ATOM     15  C   UNL     1       5.393  74.601  -1.176  1.00  0.00    -0.003 C 
ATOM     16  C   UNL     1       5.196  75.389   0.115  1.00  0.00     0.004 C 
ENDBRANCH  14  15
ENDBRANCH  13  14
ENDBRANCH  12  13
ENDBRANCH  11  12
ENDBRANCH  10  11
ENDBRANCH   1  10
TORSDOF 12
ENDMDL
MODEL 9
REMARK VINA RESULT:    -5.444      1.431      3.324
REMARK INTER + INTRA:         -11.198
REMARK INTER:                  -9.380
REMARK INTRA:                  -1.818
REMARK UNBOUND:                -1.935
REMARK SMILES CCCCCCCCCCCCCC(=O)[O-]
REMARK SMILES IDX 8 1 9 2 10 3 11 4 12 5 13 6 14 7 15 8 16 9 7 10 6 11 5 12
REMARK SMILES IDX 4 13 3 14 2 15 1 16
REMARK H PARENT
REMARK Flexibility Score: inf
ROOT
ATOM      1  C   UNL     1      13.090  72.911  -2.612  1.00  0.00     0.000 C 
ENDROOT
BRANCH   1   2
ATOM      2  C   UNL     1      11.866  72.610  -1.727  1.00  0.00     0.000 C 
BRANCH   2   3
ATOM      3  C   UNL     1      10.840  71.635  -2.335  1.00  0.00     0.000 C 
BRANCH   3   4
ATOM      4  C   UNL     1       9.389  72.109  -2.169  1.00  0.00     0.000 C 
BRANCH   4   5
ATOM      5  C   UNL     1       9.243  73.585  -2.563  1.00  0.00     0.006 C 
BRANCH   5   6
ATOM      6  C   UNL     1       7.814  74.105  -2.359  1.00  0.00     0.053 C 
BRANCH   6   7
ATOM      7  C   UNL     1       7.760  75.601  -2.362  1.00  0.00     0.041 C 
ATOM      8  O   UNL     1       7.990  76.245  -1.305  1.00  0.00    -0.550 OA
ATOM      9  O   UNL     1       7.424  76.284  -3.524  1.00  0.00    -0.550 OA
ENDBRANCH   6   7
ENDBRANCH   5   6
ENDBRANCH   4   5
ENDBRANCH   3   4
ENDBRANCH   2   3
ENDBRANCH   1   2
BRANCH   1  10
ATOM     10  C   UNL     1      13.151  74.378  -3.072  1.00  0.00     0.000 C 
BRANCH  10  11
ATOM     11  C   UNL     1      13.133  74.528  -4.604  1.00  0.00    -0.000 C 
BRANCH  11  12
ATOM     12  C   UNL     1      12.655  73.286  -5.380  1.00  0.00    -0.000 C 
BRANCH  12  13
ATOM     13  C   UNL     1      11.173  73.360  -5.779  1.00  0.00    -0.000 C 
BRANCH  13  14
ATOM     14  C   UNL     1      10.534  71.966  -5.784  1.00  0.00    -0.000 C 
BRANCH  14  15
ATOM     15  C   UNL     1       9.012  72.058  -5.926  1.00  0.00    -0.003 C 
ATOM     16  C   UNL     1       8.575  73.474  -6.288  1.00  0.00     0.004 C 
ENDBRANCH  14  15
ENDBRANCH  13  14
ENDBRANCH  12  13
ENDBRANCH  11  12
ENDBRANCH  10  11
ENDBRANCH   1  10
TORSDOF 12
ENDMDL
