MODEL 1
REMARK VINA RESULT:    -5.990      0.000      0.000
REMARK INTER + INTRA:          -7.307
REMARK INTER:                  -7.040
REMARK INTRA:                  -0.267
REMARK UNBOUND:                -0.267
REMARK SMILES O=c1cc(-c2ccc(O)c(O)c2)oc2cc(O)cc(O)c12
REMARK SMILES IDX 4 1 3 2 2 3 1 4 21 5 19 6 18 7 16 8 15 9 14 10 13 11 5 12
REMARK SMILES IDX 6 13 7 14 8 15 12 16 10 17 9 18 11 20 20 22 17 24
REMARK H PARENT 9 19 11 21 20 23 17 25
REMARK Flexibility Score: inf
ROOT
ATOM      1  C   UNL     1      27.025  40.866  15.611  1.00  0.00     0.138 A 
ATOM      2  C   UNL     1      26.330  40.180  14.601  1.00  0.00     0.100 A 
ATOM      3  C   UNL     1      26.064  40.824  13.392  1.00  0.00     0.197 A 
ATOM      4  O   UNL     1      25.439  40.201  12.493  1.00  0.00    -0.289 OA
ATOM      5  C   UNL     1      26.493  42.154  13.203  1.00  0.00     0.107 A 
ATOM      6  C   UNL     1      26.266  42.879  12.009  1.00  0.00     0.134 A 
ATOM      7  C   UNL     1      26.721  44.200  11.901  1.00  0.00     0.093 A 
ATOM      8  C   UNL     1      27.396  44.811  12.966  1.00  0.00     0.123 A 
ATOM      9  C   UNL     1      27.623  44.098  14.145  1.00  0.00     0.094 A 
ATOM     10  C   UNL     1      27.178  42.780  14.271  1.00  0.00     0.146 A 
ATOM     11  O   UNL     1      27.408  42.123  15.405  1.00  0.00    -0.456 OA
ENDROOT
BRANCH   1  12
ATOM     12  C   UNL     1      27.335  40.231  16.918  1.00  0.00     0.021 A 
ATOM     13  C   UNL     1      26.859  40.763  18.129  1.00  0.00     0.016 A 
ATOM     14  C   UNL     1      27.158  40.139  19.341  1.00  0.00     0.051 A 
ATOM     15  C   UNL     1      27.929  38.973  19.375  1.00  0.00     0.157 A 
ATOM     16  C   UNL     1      28.098  39.051  16.951  1.00  0.00     0.062 A 
ATOM     17  C   UNL     1      28.404  38.420  18.163  1.00  0.00     0.158 A 
BRANCH  15  18
ATOM     18  O   UNL     1      28.194  38.401  20.621  1.00  0.00    -0.504 OA
ATOM     19  H   UNL     1      27.615  37.695  21.054  1.00  0.00     0.293 HD
ENDBRANCH  15  18
BRANCH  17  20
ATOM     20  O   UNL     1      29.173  37.256  18.115  1.00  0.00    -0.504 OA
ATOM     21  H   UNL     1      29.262  36.605  18.883  1.00  0.00     0.293 HD
ENDBRANCH  17  20
ENDBRANCH   1  12
BRANCH   6  22
ATOM     22  O   UNL     1      25.594  42.296  10.933  1.00  0.00    -0.507 OA
ATOM     23  H   UNL     1      25.165  42.857  10.206  1.00  0.00     0.293 HD
ENDBRANCH   6  22
BRANCH   8  24
ATOM     24  O   UNL     1      27.848  46.125  12.859  1.00  0.00    -0.508 OA
ATOM     25  H   UNL     1      28.589  46.379  12.217  1.00  0.00     0.293 HD
ENDBRANCH   8  24
TORSDOF 5
ENDMDL
MODEL 2
REMARK VINA RESULT:    -5.858      3.517      6.720
REMARK INTER + INTRA:          -7.152
REMARK INTER:                  -6.857
REMARK INTRA:                  -0.295
REMARK UNBOUND:                -0.267
REMARK SMILES O=c1cc(-c2ccc(O)c(O)c2)oc2cc(O)cc(O)c12
REMARK SMILES IDX 4 1 3 2 2 3 1 4 21 5 19 6 18 7 16 8 15 9 14 10 13 11 5 12
REMARK SMILES IDX 6 13 7 14 8 15 12 16 10 17 9 18 11 20 20 22 17 24
REMARK H PARENT 9 19 11 21 20 23 17 25
REMARK Flexibility Score: inf
ROOT
ATOM      1  C   UNL     1      28.607  38.663  14.648  1.00  0.00     0.138 A 
ATOM      2  C   UNL     1      27.802  39.777  14.359  1.00  0.00     0.100 A 
ATOM      3  C   UNL     1      27.208  40.486  15.404  1.00  0.00     0.197 A 
ATOM      4  O   UNL     1      26.487  41.483  15.135  1.00  0.00    -0.289 OA
ATOM      5  C   UNL     1      27.422  40.071  16.735  1.00  0.00     0.107 A 
ATOM      6  C   UNL     1      26.860  40.733  17.852  1.00  0.00     0.134 A 
ATOM      7  C   UNL     1      27.116  40.254  19.145  1.00  0.00     0.093 A 
ATOM      8  C   UNL     1      27.923  39.126  19.340  1.00  0.00     0.123 A 
ATOM      9  C   UNL     1      28.480  38.472  18.240  1.00  0.00     0.094 A 
ATOM     10  C   UNL     1      28.237  38.933  16.944  1.00  0.00     0.146 A 
ATOM     11  O   UNL     1      28.781  38.292  15.914  1.00  0.00    -0.456 OA
ENDROOT
BRANCH   1  12
ATOM     12  C   UNL     1      29.263  37.871  13.576  1.00  0.00     0.021 A 
ATOM     13  C   UNL     1      30.100  36.780  13.870  1.00  0.00     0.016 A 
ATOM     14  C   UNL     1      30.695  36.048  12.841  1.00  0.00     0.051 A 
ATOM     15  C   UNL     1      30.465  36.379  11.502  1.00  0.00     0.157 A 
ATOM     16  C   UNL     1      29.021  38.195  12.230  1.00  0.00     0.062 A 
ATOM     17  C   UNL     1      29.615  37.466  11.192  1.00  0.00     0.158 A 
BRANCH  15  18
ATOM     18  O   UNL     1      31.093  35.608  10.522  1.00  0.00    -0.504 OA
ATOM     19  H   UNL     1      30.695  35.414   9.614  1.00  0.00     0.293 HD
ENDBRANCH  15  18
BRANCH  17  20
ATOM     20  O   UNL     1      29.334  37.853   9.880  1.00  0.00    -0.504 OA
ATOM     21  H   UNL     1      29.690  37.379   9.062  1.00  0.00     0.293 HD
ENDBRANCH  17  20
ENDBRANCH   1  12
BRANCH   6  22
ATOM     22  O   UNL     1      26.051  41.858  17.687  1.00  0.00    -0.507 OA
ATOM     23  H   UNL     1      25.043  41.810  17.788  1.00  0.00     0.293 HD
ENDBRANCH   6  22
BRANCH   8  24
ATOM     24  O   UNL     1      28.178  38.650  20.625  1.00  0.00    -0.508 OA
ATOM     25  H   UNL     1      28.588  37.737  20.779  1.00  0.00     0.293 HD
ENDBRANCH   8  24
TORSDOF 5
ENDMDL
MODEL 3
REMARK VINA RESULT:    -5.719      2.274      7.011
REMARK INTER + INTRA:          -6.989
REMARK INTER:                  -6.694
REMARK INTRA:                  -0.295
REMARK UNBOUND:                -0.267
REMARK SMILES O=c1cc(-c2ccc(O)c(O)c2)oc2cc(O)cc(O)c12
REMARK SMILES IDX 4 1 3 2 2 3 1 4 21 5 19 6 18 7 16 8 15 9 14 10 13 11 5 12
REMARK SMILES IDX 6 13 7 14 8 15 12 16 10 17 9 18 11 20 20 22 17 24
REMARK H PARENT 9 19 11 21 20 23 17 25
REMARK Flexibility Score: inf
ROOT
ATOM      1  C   UNL     1      26.750  41.609  16.425  1.00  0.00     0.138 A 
ATOM      2  C   UNL     1      26.638  41.415  17.811  1.00  0.00     0.100 A 
ATOM      3  C   UNL     1      27.218  40.288  18.396  1.00  0.00     0.197 A 
ATOM      4  O   UNL     1      27.110  40.122  19.640  1.00  0.00    -0.289 OA
ATOM      5  C   UNL     1      27.905  39.361  17.587  1.00  0.00     0.107 A 
ATOM      6  C   UNL     1      28.523  38.195  18.099  1.00  0.00     0.134 A 
ATOM      7  C   UNL     1      29.183  37.319  17.226  1.00  0.00     0.093 A 
ATOM      8  C   UNL     1      29.237  37.586  15.852  1.00  0.00     0.123 A 
ATOM      9  C   UNL     1      28.629  38.736  15.344  1.00  0.00     0.094 A 
ATOM     10  C   UNL     1      27.966  39.622  16.197  1.00  0.00     0.146 A 
ATOM     11  O   UNL     1      27.398  40.710  15.688  1.00  0.00    -0.456 OA
ENDROOT
BRANCH   1  12
ATOM     12  C   UNL     1      26.152  42.789  15.748  1.00  0.00     0.021 A 
ATOM     13  C   UNL     1      26.411  43.075  14.397  1.00  0.00     0.016 A 
ATOM     14  C   UNL     1      25.826  44.185  13.784  1.00  0.00     0.051 A 
ATOM     15  C   UNL     1      24.969  45.028  14.499  1.00  0.00     0.157 A 
ATOM     16  C   UNL     1      25.279  43.628  16.463  1.00  0.00     0.062 A 
ATOM     17  C   UNL     1      24.690  44.744  15.856  1.00  0.00     0.158 A 
BRANCH  15  18
ATOM     18  O   UNL     1      24.420  46.123  13.828  1.00  0.00    -0.504 OA
ATOM     19  H   UNL     1      24.910  46.657  13.124  1.00  0.00     0.293 HD
ENDBRANCH  15  18
BRANCH  17  20
ATOM     20  O   UNL     1      23.841  45.535  16.633  1.00  0.00    -0.504 OA
ATOM     21  H   UNL     1      23.738  46.533  16.520  1.00  0.00     0.293 HD
ENDBRANCH  17  20
ENDBRANCH   1  12
BRANCH   6  22
ATOM     22  O   UNL     1      28.484  37.902  19.463  1.00  0.00    -0.507 OA
ATOM     23  H   UNL     1      27.780  37.290  19.857  1.00  0.00     0.293 HD
ENDBRANCH   6  22
BRANCH   8  24
ATOM     24  O   UNL     1      29.893  36.715  14.985  1.00  0.00    -0.508 OA
ATOM     25  H   UNL     1      29.582  35.759  14.859  1.00  0.00     0.293 HD
ENDBRANCH   8  24
TORSDOF 5
ENDMDL
MODEL 4
REMARK VINA RESULT:    -5.678      2.564      6.572
REMARK INTER + INTRA:          -6.940
REMARK INTER:                  -6.634
REMARK INTRA:                  -0.306
REMARK UNBOUND:                -0.267
REMARK SMILES O=c1cc(-c2ccc(O)c(O)c2)oc2cc(O)cc(O)c12
REMARK SMILES IDX 4 1 3 2 2 3 1 4 21 5 19 6 18 7 16 8 15 9 14 10 13 11 5 12
REMARK SMILES IDX 6 13 7 14 8 15 12 16 10 17 9 18 11 20 20 22 17 24
REMARK H PARENT 9 19 11 21 20 23 17 25
REMARK Flexibility Score: inf
ROOT
ATOM      1  C   UNL     1      27.076  40.971  16.278  1.00  0.00     0.138 A 
ATOM      2  C   UNL     1      27.204  40.432  17.569  1.00  0.00     0.100 A 
ATOM      3  C   UNL     1      27.932  39.256  17.754  1.00  0.00     0.197 A 
ATOM      4  O   UNL     1      28.040  38.780  18.916  1.00  0.00    -0.289 OA
ATOM      5  C   UNL     1      28.525  38.624  16.643  1.00  0.00     0.107 A 
ATOM      6  C   UNL     1      29.280  37.431  16.742  1.00  0.00     0.134 A 
ATOM      7  C   UNL     1      29.835  36.861  15.587  1.00  0.00     0.093 A 
ATOM      8  C   UNL     1      29.647  37.461  14.335  1.00  0.00     0.123 A 
ATOM      9  C   UNL     1      28.903  38.638  14.234  1.00  0.00     0.094 A 
ATOM     10  C   UNL     1      28.343  39.223  15.373  1.00  0.00     0.146 A 
ATOM     11  O   UNL     1      27.641  40.344  15.249  1.00  0.00    -0.456 OA
ENDROOT
BRANCH   1  12
ATOM     12  C   UNL     1      26.312  42.219  16.022  1.00  0.00     0.021 A 
ATOM     13  C   UNL     1      26.253  43.257  16.969  1.00  0.00     0.016 A 
ATOM     14  C   UNL     1      25.536  44.422  16.696  1.00  0.00     0.051 A 
ATOM     15  C   UNL     1      24.870  44.585  15.477  1.00  0.00     0.157 A 
ATOM     16  C   UNL     1      25.654  42.387  14.792  1.00  0.00     0.062 A 
ATOM     17  C   UNL     1      24.932  43.554  14.510  1.00  0.00     0.158 A 
BRANCH  15  18
ATOM     18  O   UNL     1      24.168  45.774  15.269  1.00  0.00    -0.504 OA
ATOM     19  H   UNL     1      23.287  45.995  15.712  1.00  0.00     0.293 HD
ENDBRANCH  15  18
BRANCH  17  20
ATOM     20  O   UNL     1      24.298  43.644  13.270  1.00  0.00    -0.504 OA
ATOM     21  H   UNL     1      23.735  42.908  12.868  1.00  0.00     0.293 HD
ENDBRANCH  17  20
ENDBRANCH   1  12
BRANCH   6  22
ATOM     22  O   UNL     1      29.483  36.811  17.976  1.00  0.00    -0.507 OA
ATOM     23  H   UNL     1      28.715  36.623  18.610  1.00  0.00     0.293 HD
ENDBRANCH   6  22
BRANCH   8  24
ATOM     24  O   UNL     1      30.197  36.895  13.187  1.00  0.00    -0.508 OA
ATOM     25  H   UNL     1      31.072  37.226  12.801  1.00  0.00     0.293 HD
ENDBRANCH   8  24
TORSDOF 5
ENDMDL
MODEL 5
REMARK VINA RESULT:    -5.610      1.388      3.008
REMARK INTER + INTRA:          -6.861
REMARK INTER:                  -6.584
REMARK INTRA:                  -0.277
REMARK UNBOUND:                -0.267
REMARK SMILES O=c1cc(-c2ccc(O)c(O)c2)oc2cc(O)cc(O)c12
REMARK SMILES IDX 4 1 3 2 2 3 1 4 21 5 19 6 18 7 16 8 15 9 14 10 13 11 5 12
REMARK SMILES IDX 6 13 7 14 8 15 12 16 10 17 9 18 11 20 20 22 17 24
REMARK H PARENT 9 19 11 21 20 23 17 25
REMARK Flexibility Score: inf
ROOT
ATOM      1  C   UNL     1      26.765  40.849  15.580  1.00  0.00     0.138 A 
ATOM      2  C   UNL     1      27.136  42.145  15.183  1.00  0.00     0.100 A 
ATOM      3  C   UNL     1      26.710  42.634  13.947  1.00  0.00     0.197 A 
ATOM      4  O   UNL     1      27.048  43.796  13.600  1.00  0.00    -0.289 OA
ATOM      5  C   UNL     1      25.916  41.819  13.114  1.00  0.00     0.107 A 
ATOM      6  C   UNL     1      25.440  42.237  11.849  1.00  0.00     0.134 A 
ATOM      7  C   UNL     1      24.659  41.365  11.077  1.00  0.00     0.093 A 
ATOM      8  C   UNL     1      24.346  40.083  11.547  1.00  0.00     0.123 A 
ATOM      9  C   UNL     1      24.813  39.668  12.796  1.00  0.00     0.094 A 
ATOM     10  C   UNL     1      25.592  40.522  13.580  1.00  0.00     0.146 A 
ATOM     11  O   UNL     1      26.023  40.103  14.766  1.00  0.00    -0.456 OA
ENDROOT
BRANCH   1  12
ATOM     12  C   UNL     1      27.191  40.277  16.883  1.00  0.00     0.021 A 
ATOM     13  C   UNL     1      26.792  40.845  18.105  1.00  0.00     0.016 A 
ATOM     14  C   UNL     1      27.199  40.279  19.314  1.00  0.00     0.051 A 
ATOM     15  C   UNL     1      28.004  39.135  19.335  1.00  0.00     0.157 A 
ATOM     16  C   UNL     1      27.989  39.120  16.903  1.00  0.00     0.062 A 
ATOM     17  C   UNL     1      28.403  38.546  18.111  1.00  0.00     0.158 A 
BRANCH  15  18
ATOM     18  O   UNL     1      28.379  38.622  20.578  1.00  0.00    -0.504 OA
ATOM     19  H   UNL     1      28.834  39.164  21.299  1.00  0.00     0.293 HD
ENDBRANCH  15  18
BRANCH  17  20
ATOM     20  O   UNL     1      29.200  37.402  18.050  1.00  0.00    -0.504 OA
ATOM     21  H   UNL     1      29.308  36.747  18.812  1.00  0.00     0.293 HD
ENDBRANCH  17  20
ENDBRANCH   1  12
BRANCH   6  22
ATOM     22  O   UNL     1      25.737  43.508  11.355  1.00  0.00    -0.507 OA
ATOM     23  H   UNL     1      25.324  44.344  11.752  1.00  0.00     0.293 HD
ENDBRANCH   6  22
BRANCH   8  24
ATOM     24  O   UNL     1      23.570  39.216  10.780  1.00  0.00    -0.508 OA
ATOM     25  H   UNL     1      22.854  39.561  10.153  1.00  0.00     0.293 HD
ENDBRANCH   8  24
TORSDOF 5
ENDMDL
MODEL 6
REMARK VINA RESULT:    -5.544      4.956      7.250
REMARK INTER + INTRA:          -6.783
REMARK INTER:                  -6.503
REMARK INTRA:                  -0.280
REMARK UNBOUND:                -0.267
REMARK SMILES O=c1cc(-c2ccc(O)c(O)c2)oc2cc(O)cc(O)c12
REMARK SMILES IDX 4 1 3 2 2 3 1 4 21 5 19 6 18 7 16 8 15 9 14 10 13 11 5 12
REMARK SMILES IDX 6 13 7 14 8 15 12 16 10 17 9 18 11 20 20 22 17 24
REMARK H PARENT 9 19 11 21 20 23 17 25
REMARK Flexibility Score: inf
ROOT
ATOM      1  C   UNL     1      29.629  37.391  14.883  1.00  0.00     0.138 A 
ATOM      2  C   UNL     1      30.078  38.127  13.774  1.00  0.00     0.100 A 
ATOM      3  C   UNL     1      30.697  37.464  12.714  1.00  0.00     0.197 A 
ATOM      4  O   UNL     1      31.097  38.134  11.725  1.00  0.00    -0.289 OA
ATOM      5  C   UNL     1      30.866  36.066  12.772  1.00  0.00     0.107 A 
ATOM      6  C   UNL     1      31.481  35.317  11.741  1.00  0.00     0.134 A 
ATOM      7  C   UNL     1      31.616  33.928  11.877  1.00  0.00     0.093 A 
ATOM      8  C   UNL     1      31.149  33.275  13.025  1.00  0.00     0.123 A 
ATOM      9  C   UNL     1      30.541  34.011  14.043  1.00  0.00     0.094 A 
ATOM     10  C   UNL     1      30.396  35.396  13.927  1.00  0.00     0.146 A 
ATOM     11  O   UNL     1      29.813  36.073  14.911  1.00  0.00    -0.456 OA
ENDROOT
BRANCH   1  12
ATOM     12  C   UNL     1      28.965  38.043  16.041  1.00  0.00     0.021 A 
ATOM     13  C   UNL     1      29.235  37.652  17.364  1.00  0.00     0.016 A 
ATOM     14  C   UNL     1      28.603  38.290  18.432  1.00  0.00     0.051 A 
ATOM     15  C   UNL     1      27.697  39.332  18.210  1.00  0.00     0.157 A 
ATOM     16  C   UNL     1      28.065  39.099  15.817  1.00  0.00     0.062 A 
ATOM     17  C   UNL     1      27.426  39.744  16.883  1.00  0.00     0.158 A 
BRANCH  15  18
ATOM     18  O   UNL     1      27.098  39.926  19.322  1.00  0.00    -0.504 OA
ATOM     19  H   UNL     1      27.577  40.107  20.193  1.00  0.00     0.293 HD
ENDBRANCH  15  18
BRANCH  17  20
ATOM     20  O   UNL     1      26.539  40.779  16.582  1.00  0.00    -0.504 OA
ATOM     21  H   UNL     1      26.219  40.994  15.648  1.00  0.00     0.293 HD
ENDBRANCH  17  20
ENDBRANCH   1  12
BRANCH   6  22
ATOM     22  O   UNL     1      31.956  35.941  10.586  1.00  0.00    -0.507 OA
ATOM     23  H   UNL     1      31.809  35.542   9.666  1.00  0.00     0.293 HD
ENDBRANCH   6  22
BRANCH   8  24
ATOM     24  O   UNL     1      31.284  31.895  13.160  1.00  0.00    -0.508 OA
ATOM     25  H   UNL     1      31.275  31.449  14.069  1.00  0.00     0.293 HD
ENDBRANCH   8  24
TORSDOF 5
ENDMDL
MODEL 7
REMARK VINA RESULT:    -5.544      2.392      6.824
REMARK INTER + INTRA:          -6.782
REMARK INTER:                  -6.464
REMARK INTRA:                  -0.319
REMARK UNBOUND:                -0.267
REMARK SMILES O=c1cc(-c2ccc(O)c(O)c2)oc2cc(O)cc(O)c12
REMARK SMILES IDX 4 1 3 2 2 3 1 4 21 5 19 6 18 7 16 8 15 9 14 10 13 11 5 12
REMARK SMILES IDX 6 13 7 14 8 15 12 16 10 17 9 18 11 20 20 22 17 24
REMARK H PARENT 9 19 11 21 20 23 17 25
REMARK Flexibility Score: inf
ROOT
ATOM      1  C   UNL     1      26.466  41.609  15.506  1.00  0.00     0.138 A 
ATOM      2  C   UNL     1      27.135  40.787  14.584  1.00  0.00     0.100 A 
ATOM      3  C   UNL     1      27.866  39.690  15.044  1.00  0.00     0.197 A 
ATOM      4  O   UNL     1      28.463  38.960  14.209  1.00  0.00    -0.289 OA
ATOM      5  C   UNL     1      27.924  39.425  16.427  1.00  0.00     0.107 A 
ATOM      6  C   UNL     1      28.640  38.335  16.977  1.00  0.00     0.134 A 
ATOM      7  C   UNL     1      28.653  38.142  18.366  1.00  0.00     0.093 A 
ATOM      8  C   UNL     1      27.966  39.020  19.214  1.00  0.00     0.123 A 
ATOM      9  C   UNL     1      27.259  40.096  18.675  1.00  0.00     0.094 A 
ATOM     10  C   UNL     1      27.232  40.305  17.294  1.00  0.00     0.146 A 
ATOM     11  O   UNL     1      26.549  41.336  16.806  1.00  0.00    -0.456 OA
ENDROOT
BRANCH   1  12
ATOM     12  C   UNL     1      25.675  42.789  15.074  1.00  0.00     0.021 A 
ATOM     13  C   UNL     1      25.591  43.168  13.723  1.00  0.00     0.016 A 
ATOM     14  C   UNL     1      24.832  44.276  13.345  1.00  0.00     0.051 A 
ATOM     15  C   UNL     1      24.135  45.026  14.298  1.00  0.00     0.157 A 
ATOM     16  C   UNL     1      24.964  43.534  16.031  1.00  0.00     0.062 A 
ATOM     17  C   UNL     1      24.201  44.648  15.660  1.00  0.00     0.158 A 
BRANCH  15  18
ATOM     18  O   UNL     1      23.397  46.125  13.854  1.00  0.00    -0.504 OA
ATOM     19  H   UNL     1      22.601  46.058  13.236  1.00  0.00     0.293 HD
ENDBRANCH  15  18
BRANCH  17  20
ATOM     20  O   UNL     1      23.530  45.343  16.668  1.00  0.00    -0.504 OA
ATOM     21  H   UNL     1      22.568  45.645  16.603  1.00  0.00     0.293 HD
ENDBRANCH  17  20
ENDBRANCH   1  12
BRANCH   6  22
ATOM     22  O   UNL     1      29.334  37.445  16.156  1.00  0.00    -0.507 OA
ATOM     23  H   UNL     1      29.777  36.613  16.527  1.00  0.00     0.293 HD
ENDBRANCH   6  22
BRANCH   8  24
ATOM     24  O   UNL     1      27.980  38.829  20.594  1.00  0.00    -0.508 OA
ATOM     25  H   UNL     1      27.983  39.611  21.237  1.00  0.00     0.293 HD
ENDBRANCH   8  24
TORSDOF 5
ENDMDL
MODEL 8
REMARK VINA RESULT:    -5.486      2.354      2.931
REMARK INTER + INTRA:          -6.714
REMARK INTER:                  -6.398
REMARK INTRA:                  -0.317
REMARK UNBOUND:                -0.267
REMARK SMILES O=c1cc(-c2ccc(O)c(O)c2)oc2cc(O)cc(O)c12
REMARK SMILES IDX 4 1 3 2 2 3 1 4 21 5 19 6 18 7 16 8 15 9 14 10 13 11 5 12
REMARK SMILES IDX 6 13 7 14 8 15 12 16 10 17 9 18 11 20 20 22 17 24
REMARK H PARENT 9 19 11 21 20 23 17 25
REMARK Flexibility Score: inf
ROOT
ATOM      1  C   UNL     1      26.724  41.023  15.375  1.00  0.00     0.138 A 
ATOM      2  C   UNL     1      26.512  41.081  13.988  1.00  0.00     0.100 A 
ATOM      3  C   UNL     1      25.759  42.125  13.450  1.00  0.00     0.197 A 
ATOM      4  O   UNL     1      25.574  42.167  12.205  1.00  0.00    -0.289 OA
ATOM      5  C   UNL     1      25.218  43.105  14.307  1.00  0.00     0.107 A 
ATOM      6  C   UNL     1      24.445  44.196  13.845  1.00  0.00     0.134 A 
ATOM      7  C   UNL     1      23.938  45.127  14.763  1.00  0.00     0.093 A 
ATOM      8  C   UNL     1      24.188  44.985  16.134  1.00  0.00     0.123 A 
ATOM      9  C   UNL     1      24.951  43.910  16.593  1.00  0.00     0.094 A 
ATOM     10  C   UNL     1      25.467  42.973  15.694  1.00  0.00     0.146 A 
ATOM     11  O   UNL     1      26.191  41.959  16.158  1.00  0.00    -0.456 OA
ENDROOT
BRANCH   1  12
ATOM     12  C   UNL     1      27.516  39.935  16.003  1.00  0.00     0.021 A 
ATOM     13  C   UNL     1      28.317  39.068  15.238  1.00  0.00     0.016 A 
ATOM     14  C   UNL     1      29.059  38.061  15.856  1.00  0.00     0.051 A 
ATOM     15  C   UNL     1      29.026  37.897  17.245  1.00  0.00     0.157 A 
ATOM     16  C   UNL     1      27.494  39.779  17.400  1.00  0.00     0.062 A 
ATOM     17  C   UNL     1      28.234  38.770  18.028  1.00  0.00     0.158 A 
BRANCH  15  18
ATOM     18  O   UNL     1      29.789  36.868  17.800  1.00  0.00    -0.504 OA
ATOM     19  H   UNL     1      29.847  36.678  18.791  1.00  0.00     0.293 HD
ENDBRANCH  15  18
BRANCH  17  20
ATOM     20  O   UNL     1      28.155  38.673  19.418  1.00  0.00    -0.504 OA
ATOM     21  H   UNL     1      27.318  38.861  19.951  1.00  0.00     0.293 HD
ENDBRANCH  17  20
ENDBRANCH   1  12
BRANCH   6  22
ATOM     22  O   UNL     1      24.178  44.362  12.485  1.00  0.00    -0.507 OA
ATOM     23  H   UNL     1      24.477  45.188  11.980  1.00  0.00     0.293 HD
ENDBRANCH   6  22
BRANCH   8  24
ATOM     24  O   UNL     1      23.684  45.910  17.047  1.00  0.00    -0.508 OA
ATOM     25  H   UNL     1      23.658  46.900  16.838  1.00  0.00     0.293 HD
ENDBRANCH   8  24
TORSDOF 5
ENDMDL
MODEL 9
REMARK VINA RESULT:    -5.408      2.087      3.435
REMARK INTER + INTRA:          -6.623
REMARK INTER:                  -6.343
REMARK INTRA:                  -0.280
REMARK UNBOUND:                -0.267
REMARK SMILES O=c1cc(-c2ccc(O)c(O)c2)oc2cc(O)cc(O)c12
REMARK SMILES IDX 4 1 3 2 2 3 1 4 21 5 19 6 18 7 16 8 15 9 14 10 13 11 5 12
REMARK SMILES IDX 6 13 7 14 8 15 12 16 10 17 9 18 11 20 20 22 17 24
REMARK H PARENT 9 19 11 21 20 23 17 25
REMARK Flexibility Score: inf
ROOT
ATOM      1  C   UNL     1      26.708  41.260  16.017  1.00  0.00     0.138 A 
ATOM      2  C   UNL     1      26.668  42.453  16.759  1.00  0.00     0.100 A 
ATOM      3  C   UNL     1      25.939  43.540  16.274  1.00  0.00     0.197 A 
ATOM      4  O   UNL     1      25.910  44.604  16.946  1.00  0.00    -0.289 OA
ATOM      5  C   UNL     1      25.255  43.426  15.047  1.00  0.00     0.107 A 
ATOM      6  C   UNL     1      24.492  44.477  14.485  1.00  0.00     0.134 A 
ATOM      7  C   UNL     1      23.846  44.286  13.256  1.00  0.00     0.093 A 
ATOM      8  C   UNL     1      23.949  43.065  12.577  1.00  0.00     0.123 A 
ATOM      9  C   UNL     1      24.700  42.026  13.129  1.00  0.00     0.094 A 
ATOM     10  C   UNL     1      25.352  42.195  14.354  1.00  0.00     0.146 A 
ATOM     11  O   UNL     1      26.059  41.189  14.857  1.00  0.00    -0.456 OA
ENDROOT
BRANCH   1  12
ATOM     12  C   UNL     1      27.469  40.073  16.483  1.00  0.00     0.021 A 
ATOM     13  C   UNL     1      28.217  39.279  15.596  1.00  0.00     0.016 A 
ATOM     14  C   UNL     1      28.930  38.175  16.064  1.00  0.00     0.051 A 
ATOM     15  C   UNL     1      28.921  37.840  17.422  1.00  0.00     0.157 A 
ATOM     16  C   UNL     1      27.471  39.745  17.850  1.00  0.00     0.062 A 
ATOM     17  C   UNL     1      28.183  38.638  18.328  1.00  0.00     0.158 A 
BRANCH  15  18
ATOM     18  O   UNL     1      29.654  36.721  17.824  1.00  0.00    -0.504 OA
ATOM     19  H   UNL     1      29.500  35.788  17.469  1.00  0.00     0.293 HD
ENDBRANCH  15  18
BRANCH  17  20
ATOM     20  O   UNL     1      28.131  38.371  19.697  1.00  0.00    -0.504 OA
ATOM     21  H   UNL     1      27.854  39.047  20.395  1.00  0.00     0.293 HD
ENDBRANCH  17  20
ENDBRANCH   1  12
BRANCH   6  22
ATOM     22  O   UNL     1      24.373  45.705  15.138  1.00  0.00    -0.507 OA
ATOM     23  H   UNL     1      25.043  46.005  15.836  1.00  0.00     0.293 HD
ENDBRANCH   6  22
BRANCH   8  24
ATOM     24  O   UNL     1      23.307  42.876  11.355  1.00  0.00    -0.508 OA
ATOM     25  H   UNL     1      23.308  43.593  10.640  1.00  0.00     0.293 HD
ENDBRANCH   8  24
TORSDOF 5
ENDMDL
