MODEL 1
REMARK VINA RESULT:    -5.216      0.000      0.000
REMARK INTER + INTRA:          -4.993
REMARK INTER:                  -5.673
REMARK INTRA:                   0.680
REMARK UNBOUND:                 0.680
REMARK SMILES C[C@H]1[C@H]2C3=CC[C@@H]4[C@@]5(C)CC[C@@H](O)C(C)(C)[C@@H]5CC[C@]4(C)[C@@]3(C)CC[C@]2(C(=O)[O-])CC[C@@H]1C
REMARK SMILES IDX 26 1 30 2 25 3 3 4 31 5 24 6 4 7 2 8 32 9 22 10 5 11 1 12
REMARK SMILES IDX 33 13 23 14 20 15 6 16 7 17 19 18 21 19 8 20 18 21 17 22
REMARK SMILES IDX 10 23 9 24 14 25 11 26 12 27 15 28 16 29 27 30 28 31 29 32
REMARK SMILES IDX 13 33
REMARK H PARENT 13 34
REMARK Flexibility Score: inf
ROOT
ATOM      1  C   UNL     1      11.078 -22.353  -9.417  1.00  0.00     0.017 C 
ATOM      2  C   UNL     1      12.611 -22.097  -9.344  1.00  0.00     0.014 C 
ATOM      3  C   UNL     1      10.710 -23.311  -8.268  1.00  0.00     0.014 C 
ATOM      4  C   UNL     1      10.336 -20.995  -9.186  1.00  0.00     0.030 C 
ATOM      5  C   UNL     1      13.082 -21.055 -10.367  1.00  0.00     0.004 C 
ATOM      6  C   UNL     1       9.203 -23.586  -8.194  1.00  0.00     0.013 C 
ATOM      7  C   UNL     1       8.817 -21.149  -8.931  1.00  0.00    -0.063 C 
ATOM      8  C   UNL     1      10.802 -19.870 -10.184  1.00  0.00    -0.003 C 
ATOM      9  C   UNL     1      12.353 -19.706 -10.208  1.00  0.00    -0.011 C 
ATOM     10  C   UNL     1       8.290 -22.305  -8.049  1.00  0.00    -0.006 C 
ATOM     11  C   UNL     1       7.979 -20.114  -9.186  1.00  0.00    -0.027 C 
ATOM     12  C   UNL     1      10.258 -20.020 -11.620  1.00  0.00     0.008 C 
ATOM     13  C   UNL     1      12.870 -18.926  -8.986  1.00  0.00     0.008 C 
ATOM     14  C   UNL     1       8.416 -21.856  -6.569  1.00  0.00     0.017 C 
ATOM     15  C   UNL     1       6.748 -22.612  -8.444  1.00  0.00    -0.020 C 
ATOM     16  C   UNL     1       6.630 -19.964  -8.545  1.00  0.00     0.032 C 
ATOM     17  C   UNL     1       5.836 -21.290  -8.344  1.00  0.00     0.006 C 
ATOM     18  C   UNL     1       6.170 -23.865  -7.661  1.00  0.00     0.008 C 
ATOM     19  C   UNL     1       6.693 -23.032  -9.963  1.00  0.00     0.012 C 
ATOM     20  C   UNL     1       4.695 -21.191  -7.234  1.00  0.00    -0.025 C 
ATOM     21  C   UNL     1       5.002 -23.668  -6.695  1.00  0.00     0.005 C 
ATOM     22  C   UNL     1       3.997 -22.595  -7.145  1.00  0.00     0.003 C 
ATOM     23  C   UNL     1       3.657 -20.081  -7.685  1.00  0.00     0.010 C 
ATOM     24  C   UNL     1       5.249 -20.761  -5.840  1.00  0.00     0.012 C 
ATOM     25  C   UNL     1       2.611 -22.669  -6.351  1.00  0.00    -0.006 C 
ATOM     26  C   UNL     1       2.182 -20.489  -7.621  1.00  0.00     0.033 C 
ATOM     27  C   UNL     1       1.891 -21.278  -6.343  1.00  0.00     0.120 C 
ATOM     28  C   UNL     1       2.774 -23.131  -4.875  1.00  0.00     0.014 C 
ATOM     29  C   UNL     1       1.712 -23.727  -7.051  1.00  0.00     0.014 C 
ENDROOT
BRANCH   1  30
ATOM     30  C   UNL     1      10.726 -23.031 -10.740  1.00  0.00     0.048 C 
ATOM     31  O   UNL     1      11.498 -23.894 -11.237  1.00  0.00    -0.550 OA
ATOM     32  O   UNL     1       9.509 -22.797 -11.362  1.00  0.00    -0.550 OA
ENDBRANCH   1  30
BRANCH  27  33
ATOM     33  O   UNL     1       0.505 -21.393  -6.116  1.00  0.00    -0.393 OA
ATOM     34  H   UNL     1       0.176 -20.540  -5.726  1.00  0.00     0.210 HD
ENDBRANCH  27  33
TORSDOF 2
ENDMDL
MODEL 2
REMARK VINA RESULT:    -4.031      1.490      2.778
REMARK INTER + INTRA:          -3.705
REMARK INTER:                  -4.387
REMARK INTRA:                   0.683
REMARK UNBOUND:                 0.680
REMARK SMILES C[C@H]1[C@H]2C3=CC[C@@H]4[C@@]5(C)CC[C@@H](O)C(C)(C)[C@@H]5CC[C@]4(C)[C@@]3(C)CC[C@]2(C(=O)[O-])CC[C@@H]1C
REMARK SMILES IDX 26 1 30 2 25 3 3 4 31 5 24 6 4 7 2 8 32 9 22 10 5 11 1 12
REMARK SMILES IDX 33 13 23 14 20 15 6 16 7 17 19 18 21 19 8 20 18 21 17 22
REMARK SMILES IDX 10 23 9 24 14 25 11 26 12 27 15 28 16 29 27 30 28 31 29 32
REMARK SMILES IDX 13 33
REMARK H PARENT 13 34
REMARK Flexibility Score: inf
ROOT
ATOM      1  C   UNL     1      10.583 -22.067 -10.718  1.00  0.00     0.017 C 
ATOM      2  C   UNL     1      11.831 -22.838 -11.235  1.00  0.00     0.014 C 
ATOM      3  C   UNL     1       9.347 -22.651 -11.426  1.00  0.00     0.014 C 
ATOM      4  C   UNL     1      10.441 -22.325  -9.181  1.00  0.00     0.030 C 
ATOM      5  C   UNL     1      13.118 -22.429 -10.508  1.00  0.00     0.004 C 
ATOM      6  C   UNL     1       8.038 -22.012 -10.945  1.00  0.00     0.013 C 
ATOM      7  C   UNL     1       9.082 -21.870  -8.594  1.00  0.00    -0.063 C 
ATOM      8  C   UNL     1      11.746 -21.957  -8.379  1.00  0.00    -0.003 C 
ATOM      9  C   UNL     1      13.018 -22.628  -8.982  1.00  0.00    -0.011 C 
ATOM     10  C   UNL     1       7.776 -22.103  -9.389  1.00  0.00    -0.006 C 
ATOM     11  C   UNL     1       8.978 -21.578  -7.275  1.00  0.00    -0.027 C 
ATOM     12  C   UNL     1      11.978 -20.444  -8.190  1.00  0.00     0.008 C 
ATOM     13  C   UNL     1      13.124 -24.115  -8.599  1.00  0.00     0.008 C 
ATOM     14  C   UNL     1       7.319 -23.562  -9.117  1.00  0.00     0.017 C 
ATOM     15  C   UNL     1       6.660 -21.034  -8.899  1.00  0.00    -0.020 C 
ATOM     16  C   UNL     1       7.681 -21.613  -6.520  1.00  0.00     0.032 C 
ATOM     17  C   UNL     1       6.438 -21.097  -7.307  1.00  0.00     0.006 C 
ATOM     18  C   UNL     1       5.325 -21.133  -9.749  1.00  0.00     0.008 C 
ATOM     19  C   UNL     1       7.202 -19.580  -9.177  1.00  0.00     0.012 C 
ATOM     20  C   UNL     1       5.048 -21.611  -6.715  1.00  0.00    -0.025 C 
ATOM     21  C   UNL     1       4.025 -21.538  -9.055  1.00  0.00     0.005 C 
ATOM     22  C   UNL     1       3.903 -21.017  -7.612  1.00  0.00     0.003 C 
ATOM     23  C   UNL     1       4.917 -21.087  -5.225  1.00  0.00     0.010 C 
ATOM     24  C   UNL     1       4.957 -23.168  -6.664  1.00  0.00     0.012 C 
ATOM     25  C   UNL     1       2.413 -21.108  -7.042  1.00  0.00    -0.006 C 
ATOM     26  C   UNL     1       3.585 -20.417  -4.875  1.00  0.00     0.033 C 
ATOM     27  C   UNL     1       2.411 -21.191  -5.478  1.00  0.00     0.120 C 
ATOM     28  C   UNL     1       1.621 -22.332  -7.585  1.00  0.00     0.014 C 
ATOM     29  C   UNL     1       1.642 -19.840  -7.507  1.00  0.00     0.014 C 
ENDROOT
BRANCH   1  30
ATOM     30  C   UNL     1      10.696 -20.589 -11.087  1.00  0.00     0.048 C 
ATOM     31  O   UNL     1      11.245 -20.244 -12.167  1.00  0.00    -0.550 OA
ATOM     32  O   UNL     1      10.103 -19.609 -10.306  1.00  0.00    -0.550 OA
ENDBRANCH   1  30
BRANCH  27  33
ATOM     33  O   UNL     1       1.184 -20.778  -4.920  1.00  0.00    -0.393 OA
ATOM     34  H   UNL     1       1.358 -20.023  -4.298  1.00  0.00     0.210 HD
ENDBRANCH  27  33
TORSDOF 2
ENDMDL
MODEL 3
REMARK VINA RESULT:    -2.337      1.691      8.180
REMARK INTER + INTRA:          -1.862
REMARK INTER:                  -3.081
REMARK INTRA:                   1.220
REMARK UNBOUND:                 0.680
REMARK SMILES C[C@H]1[C@H]2C3=CC[C@@H]4[C@@]5(C)CC[C@@H](O)C(C)(C)[C@@H]5CC[C@]4(C)[C@@]3(C)CC[C@]2(C(=O)[O-])CC[C@@H]1C
REMARK SMILES IDX 26 1 30 2 25 3 3 4 31 5 24 6 4 7 2 8 32 9 22 10 5 11 1 12
REMARK SMILES IDX 33 13 23 14 20 15 6 16 7 17 19 18 21 19 8 20 18 21 17 22
REMARK SMILES IDX 10 23 9 24 14 25 11 26 12 27 15 28 16 29 27 30 28 31 29 32
REMARK SMILES IDX 13 33
REMARK H PARENT 13 34
REMARK Flexibility Score: inf
ROOT
ATOM      1  C   UNL     1       4.113 -22.022  -5.540  1.00  0.00     0.017 C 
ATOM      2  C   UNL     1       2.820 -22.585  -4.883  1.00  0.00     0.014 C 
ATOM      3  C   UNL     1       5.315 -22.719  -4.876  1.00  0.00     0.014 C 
ATOM      4  C   UNL     1       4.102 -22.396  -7.059  1.00  0.00     0.030 C 
ATOM      5  C   UNL     1       1.544 -22.056  -5.550  1.00  0.00     0.004 C 
ATOM      6  C   UNL     1       6.654 -22.293  -5.491  1.00  0.00     0.013 C 
ATOM      7  C   UNL     1       5.458 -22.166  -7.769  1.00  0.00    -0.063 C 
ATOM      8  C   UNL     1       2.797 -21.910  -7.796  1.00  0.00    -0.003 C 
ATOM      9  C   UNL     1       1.499 -22.364  -7.060  1.00  0.00    -0.011 C 
ATOM     10  C   UNL     1       6.782 -22.519  -7.050  1.00  0.00    -0.006 C 
ATOM     11  C   UNL     1       5.498 -21.976  -9.111  1.00  0.00    -0.027 C 
ATOM     12  C   UNL     1       2.748 -20.394  -8.081  1.00  0.00     0.008 C 
ATOM     13  C   UNL     1       1.174 -23.845  -7.324  1.00  0.00     0.008 C 
ATOM     14  C   UNL     1       7.024 -24.040  -7.243  1.00  0.00     0.017 C 
ATOM     15  C   UNL     1       7.984 -21.642  -7.693  1.00  0.00    -0.020 C 
ATOM     16  C   UNL     1       6.717 -22.233  -9.948  1.00  0.00     0.032 C 
ATOM     17  C   UNL     1       8.073 -21.837  -9.288  1.00  0.00     0.006 C 
ATOM     18  C   UNL     1       9.356 -21.864  -6.930  1.00  0.00     0.008 C 
ATOM     19  C   UNL     1       7.656 -20.113  -7.487  1.00  0.00     0.012 C 
ATOM     20  C   UNL     1       9.335 -22.570  -9.932  1.00  0.00    -0.025 C 
ATOM     21  C   UNL     1      10.537 -22.482  -7.679  1.00  0.00     0.005 C 
ATOM     22  C   UNL     1      10.613 -22.077  -9.162  1.00  0.00     0.003 C 
ATOM     23  C   UNL     1       9.418 -22.165 -11.462  1.00  0.00     0.010 C 
ATOM     24  C   UNL     1       9.222 -24.125  -9.874  1.00  0.00     0.012 C 
ATOM     25  C   UNL     1      12.031 -22.403  -9.823  1.00  0.00    -0.006 C 
ATOM     26  C   UNL     1      10.794 -21.703 -11.951  1.00  0.00     0.033 C 
ATOM     27  C   UNL     1      11.901 -22.586 -11.373  1.00  0.00     0.120 C 
ATOM     28  C   UNL     1      12.698 -23.683  -9.246  1.00  0.00     0.014 C 
ATOM     29  C   UNL     1      12.992 -21.222  -9.507  1.00  0.00     0.014 C 
ENDROOT
BRANCH   1  30
ATOM     30  C   UNL     1       4.219 -20.522  -5.275  1.00  0.00     0.048 C 
ATOM     31  O   UNL     1       3.207 -19.867  -4.909  1.00  0.00    -0.550 OA
ATOM     32  O   UNL     1       5.444 -19.872  -5.320  1.00  0.00    -0.550 OA
ENDBRANCH   1  30
BRANCH  27  33
ATOM     33  O   UNL     1      13.125 -22.378 -12.042  1.00  0.00    -0.393 OA
ATOM     34  H   UNL     1      13.587 -21.606 -11.621  1.00  0.00     0.210 HD
ENDBRANCH  27  33
TORSDOF 2
ENDMDL
