MODEL 1
REMARK VINA RESULT:    -6.660      0.000      0.000
REMARK INTER + INTRA:         -11.338
REMARK INTER:                  -9.580
REMARK INTRA:                  -1.758
REMARK UNBOUND:                -1.758
REMARK SMILES O=c1c(O[C@@H]2O[C@@H](CO)[C@H](O)[C@H](O)[C@H]2O)c(-c2ccc(O)cc2)oc2cc(O)cc(O)c12
REMARK SMILES IDX 4 1 3 2 16 3 24 4 2 5 25 6 1 7 32 8 26 9 30 10 27 11 29 12
REMARK SMILES IDX 17 13 18 14 19 15 20 16 23 17 22 18 21 19 31 21 28 23 5 25
REMARK SMILES IDX 14 26 6 27 12 28 7 29 10 30 15 31 13 33 8 35 9 36 11 38
REMARK H PARENT 21 20 31 22 28 24 15 32 13 34 9 37 11 39
REMARK Flexibility Score: inf
ROOT
ATOM      1  O   UNL     1      -8.037 -16.581  19.653  1.00  0.00    -0.454 OA
ENDROOT
BRANCH   1   2
ATOM      2  C   UNL     1      -7.684 -15.722  18.604  1.00  0.00     0.214 A 
ATOM      3  C   UNL     1      -7.684 -14.320  18.761  1.00  0.00     0.180 A 
ATOM      4  O   UNL     1      -7.423 -13.541  17.715  1.00  0.00    -0.452 OA
ATOM      5  C   UNL     1      -7.334 -16.266  17.365  1.00  0.00     0.239 A 
ATOM      6  C   UNL     1      -7.117 -14.013  16.513  1.00  0.00     0.146 A 
ATOM      7  O   UNL     1      -7.301 -17.519  17.231  1.00  0.00    -0.285 OA
ATOM      8  C   UNL     1      -7.044 -15.408  16.283  1.00  0.00     0.111 A 
ATOM      9  C   UNL     1      -6.856 -13.116  15.474  1.00  0.00     0.094 A 
ATOM     10  C   UNL     1      -6.700 -15.879  14.994  1.00  0.00     0.134 A 
ATOM     11  C   UNL     1      -6.518 -13.586  14.201  1.00  0.00     0.123 A 
ATOM     12  C   UNL     1      -6.440 -14.961  13.965  1.00  0.00     0.093 A 
BRANCH   3  13
ATOM     13  C   UNL     1      -7.953 -13.674  20.063  1.00  0.00     0.021 A 
ATOM     14  C   UNL     1      -6.957 -13.593  21.053  1.00  0.00     0.016 A 
ATOM     15  C   UNL     1      -7.228 -12.976  22.279  1.00  0.00     0.047 A 
ATOM     16  C   UNL     1      -8.487 -12.420  22.522  1.00  0.00     0.115 A 
ATOM     17  C   UNL     1      -9.207 -13.092  20.306  1.00  0.00     0.016 A 
ATOM     18  C   UNL     1      -9.475 -12.475  21.531  1.00  0.00     0.047 A 
BRANCH  16  19
ATOM     19  O   UNL     1      -8.744 -11.810  23.749  1.00  0.00    -0.508 OA
ATOM     20  H   UNL     1      -9.050 -10.846  23.807  1.00  0.00     0.293 HD
ENDBRANCH  16  19
ENDBRANCH   3  13
BRANCH  10  21
ATOM     21  O   UNL     1      -6.615 -17.246  14.727  1.00  0.00    -0.507 OA
ATOM     22  H   UNL     1      -7.424 -17.852  14.792  1.00  0.00     0.293 HD
ENDBRANCH  10  21
BRANCH  11  23
ATOM     23  O   UNL     1      -6.257 -12.695  13.162  1.00  0.00    -0.508 OA
ATOM     24  H   UNL     1      -6.423 -12.946  12.195  1.00  0.00     0.293 HD
ENDBRANCH  11  23
ENDBRANCH   1   2
BRANCH   1  25
ATOM     25  C   UNL     1      -9.363 -17.093  19.823  1.00  0.00     0.339 C 
ATOM     26  C   UNL     1      -9.332 -18.619  20.058  1.00  0.00     0.214 C 
ATOM     27  O   UNL     1     -10.033 -16.421  20.877  1.00  0.00    -0.332 OA
ATOM     28  C   UNL     1      -8.717 -18.947  21.428  1.00  0.00     0.180 C 
ATOM     29  C   UNL     1      -9.374 -16.603  22.120  1.00  0.00     0.179 C 
ATOM     30  C   UNL     1      -9.383 -18.094  22.529  1.00  0.00     0.177 C 
BRANCH  26  31
ATOM     31  O   UNL     1     -10.636 -19.137  20.000  1.00  0.00    -0.384 OA
ATOM     32  H   UNL     1     -11.226 -18.483  20.459  1.00  0.00     0.211 HD
ENDBRANCH  26  31
BRANCH  28  33
ATOM     33  O   UNL     1      -7.332 -18.707  21.390  1.00  0.00    -0.387 OA
ATOM     34  H   UNL     1      -6.942 -19.353  20.744  1.00  0.00     0.211 HD
ENDBRANCH  28  33
BRANCH  29  35
ATOM     35  C   UNL     1     -10.071 -15.727  23.169  1.00  0.00     0.191 C 
BRANCH  35  36
ATOM     36  O   UNL     1      -9.160 -15.331  24.158  1.00  0.00    -0.394 OA
ATOM     37  H   UNL     1      -9.530 -14.500  24.556  1.00  0.00     0.210 HD
ENDBRANCH  35  36
ENDBRANCH  29  35
BRANCH  30  38
ATOM     38  O   UNL     1      -8.706 -18.262  23.749  1.00  0.00    -0.387 OA
ATOM     39  H   UNL     1      -8.288 -19.162  23.722  1.00  0.00     0.211 HD
ENDBRANCH  30  38
ENDBRANCH   1  25
TORSDOF 11
ENDMDL
MODEL 2
REMARK VINA RESULT:    -6.487      4.491      6.954
REMARK INTER + INTRA:         -11.089
REMARK INTER:                  -9.643
REMARK INTRA:                  -1.445
REMARK UNBOUND:                -1.758
REMARK SMILES O=c1c(O[C@@H]2O[C@@H](CO)[C@H](O)[C@H](O)[C@H]2O)c(-c2ccc(O)cc2)oc2cc(O)cc(O)c12
REMARK SMILES IDX 4 1 3 2 16 3 24 4 2 5 25 6 1 7 32 8 26 9 30 10 27 11 29 12
REMARK SMILES IDX 17 13 18 14 19 15 20 16 23 17 22 18 21 19 31 21 28 23 5 25
REMARK SMILES IDX 14 26 6 27 12 28 7 29 10 30 15 31 13 33 8 35 9 36 11 38
REMARK H PARENT 21 20 31 22 28 24 15 32 13 34 9 37 11 39
REMARK Flexibility Score: inf
ROOT
ATOM      1  O   UNL     1     -11.444 -19.236  19.898  1.00  0.00    -0.454 OA
ENDROOT
BRANCH   1   2
ATOM      2  C   UNL     1     -10.297 -20.031  20.024  1.00  0.00     0.214 A 
ATOM      3  C   UNL     1      -9.193 -19.622  20.801  1.00  0.00     0.180 A 
ATOM      4  O   UNL     1      -8.092 -20.368  20.826  1.00  0.00    -0.452 OA
ATOM      5  C   UNL     1     -10.238 -21.257  19.355  1.00  0.00     0.239 A 
ATOM      6  C   UNL     1      -7.981 -21.523  20.180  1.00  0.00     0.146 A 
ATOM      7  O   UNL     1     -11.236 -21.641  18.687  1.00  0.00    -0.285 OA
ATOM      8  C   UNL     1      -9.061 -22.031  19.420  1.00  0.00     0.111 A 
ATOM      9  C   UNL     1      -6.784 -22.240  20.267  1.00  0.00     0.094 A 
ATOM     10  C   UNL     1      -8.916 -23.273  18.757  1.00  0.00     0.134 A 
ATOM     11  C   UNL     1      -6.644 -23.465  19.608  1.00  0.00     0.123 A 
ATOM     12  C   UNL     1      -7.706 -23.978  18.859  1.00  0.00     0.093 A 
BRANCH   3  13
ATOM     13  C   UNL     1      -9.215 -18.384  21.610  1.00  0.00     0.021 A 
ATOM     14  C   UNL     1      -9.470 -18.425  22.993  1.00  0.00     0.016 A 
ATOM     15  C   UNL     1      -9.485 -17.246  23.744  1.00  0.00     0.047 A 
ATOM     16  C   UNL     1      -9.229 -16.017  23.128  1.00  0.00     0.115 A 
ATOM     17  C   UNL     1      -8.934 -17.150  21.003  1.00  0.00     0.016 A 
ATOM     18  C   UNL     1      -8.948 -15.973  21.756  1.00  0.00     0.047 A 
BRANCH  16  19
ATOM     19  O   UNL     1      -9.249 -14.849  23.888  1.00  0.00    -0.508 OA
ATOM     20  H   UNL     1      -9.630 -13.985  23.520  1.00  0.00     0.293 HD
ENDBRANCH  16  19
ENDBRANCH   3  13
BRANCH  10  21
ATOM     21  O   UNL     1      -9.958 -23.810  18.000  1.00  0.00    -0.507 OA
ATOM     22  H   UNL     1     -10.917 -23.506  18.123  1.00  0.00     0.293 HD
ENDBRANCH  10  21
BRANCH  11  23
ATOM     23  O   UNL     1      -5.454 -24.184  19.692  1.00  0.00    -0.508 OA
ATOM     24  H   UNL     1      -5.337 -24.941  20.355  1.00  0.00     0.293 HD
ENDBRANCH  11  23
ENDBRANCH   1   2
BRANCH   1  25
ATOM     25  C   UNL     1     -12.609 -19.422  20.708  1.00  0.00     0.339 C 
ATOM     26  C   UNL     1     -12.843 -18.194  21.615  1.00  0.00     0.214 C 
ATOM     27  O   UNL     1     -13.745 -19.696  19.905  1.00  0.00    -0.332 OA
ATOM     28  C   UNL     1     -13.263 -16.973  20.781  1.00  0.00     0.180 C 
ATOM     29  C   UNL     1     -14.039 -18.622  19.026  1.00  0.00     0.179 C 
ATOM     30  C   UNL     1     -14.412 -17.351  19.824  1.00  0.00     0.177 C 
BRANCH  26  31
ATOM     31  O   UNL     1     -13.847 -18.480  22.554  1.00  0.00    -0.384 OA
ATOM     32  H   UNL     1     -14.227 -17.611  22.844  1.00  0.00     0.211 HD
ENDBRANCH  26  31
BRANCH  28  33
ATOM     33  O   UNL     1     -12.155 -16.497  20.058  1.00  0.00    -0.387 OA
ATOM     34  H   UNL     1     -12.495 -15.823  19.413  1.00  0.00     0.211 HD
ENDBRANCH  28  33
BRANCH  29  35
ATOM     35  C   UNL     1     -15.178 -19.057  18.095  1.00  0.00     0.191 C 
BRANCH  35  36
ATOM     36  O   UNL     1     -16.416 -18.653  18.615  1.00  0.00    -0.394 OA
ATOM     37  H   UNL     1     -17.105 -19.150  18.100  1.00  0.00     0.210 HD
ENDBRANCH  35  36
ENDBRANCH  29  35
BRANCH  30  38
ATOM     38  O   UNL     1     -14.677 -16.290  18.941  1.00  0.00    -0.387 OA
ATOM     39  H   UNL     1     -14.820 -16.693  18.045  1.00  0.00     0.211 HD
ENDBRANCH  30  38
ENDBRANCH   1  25
TORSDOF 11
ENDMDL
MODEL 3
REMARK VINA RESULT:    -6.399      6.751      9.322
REMARK INTER + INTRA:         -10.963
REMARK INTER:                  -9.743
REMARK INTRA:                  -1.219
REMARK UNBOUND:                -1.758
REMARK SMILES O=c1c(O[C@@H]2O[C@@H](CO)[C@H](O)[C@H](O)[C@H]2O)c(-c2ccc(O)cc2)oc2cc(O)cc(O)c12
REMARK SMILES IDX 4 1 3 2 16 3 24 4 2 5 25 6 1 7 32 8 26 9 30 10 27 11 29 12
REMARK SMILES IDX 17 13 18 14 19 15 20 16 23 17 22 18 21 19 31 21 28 23 5 25
REMARK SMILES IDX 14 26 6 27 12 28 7 29 10 30 15 31 13 33 8 35 9 36 11 38
REMARK H PARENT 21 20 31 22 28 24 15 32 13 34 9 37 11 39
REMARK Flexibility Score: inf
ROOT
ATOM      1  O   UNL     1     -14.553 -17.123  18.970  1.00  0.00    -0.454 OA
ENDROOT
BRANCH   1   2
ATOM      2  C   UNL     1     -15.652 -17.725  18.345  1.00  0.00     0.214 A 
ATOM      3  C   UNL     1     -16.241 -18.903  18.851  1.00  0.00     0.180 A 
ATOM      4  O   UNL     1     -17.229 -19.487  18.179  1.00  0.00    -0.452 OA
ATOM      5  C   UNL     1     -16.174 -17.153  17.181  1.00  0.00     0.239 A 
ATOM      6  C   UNL     1     -17.734 -18.995  17.054  1.00  0.00     0.146 A 
ATOM      7  O   UNL     1     -15.671 -16.082  16.744  1.00  0.00    -0.285 OA
ATOM      8  C   UNL     1     -17.236 -17.789  16.506  1.00  0.00     0.111 A 
ATOM      9  C   UNL     1     -18.775 -19.678  16.419  1.00  0.00     0.094 A 
ATOM     10  C   UNL     1     -17.807 -17.284  15.314  1.00  0.00     0.134 A 
ATOM     11  C   UNL     1     -19.335 -19.177  15.240  1.00  0.00     0.123 A 
ATOM     12  C   UNL     1     -18.853 -17.985  14.693  1.00  0.00     0.093 A 
BRANCH   3  13
ATOM     13  C   UNL     1     -15.805 -19.516  20.124  1.00  0.00     0.021 A 
ATOM     14  C   UNL     1     -16.189 -18.969  21.362  1.00  0.00     0.016 A 
ATOM     15  C   UNL     1     -15.770 -19.563  22.557  1.00  0.00     0.047 A 
ATOM     16  C   UNL     1     -14.980 -20.716  22.529  1.00  0.00     0.115 A 
ATOM     17  C   UNL     1     -15.033 -20.687  20.105  1.00  0.00     0.016 A 
ATOM     18  C   UNL     1     -14.616 -21.280  21.300  1.00  0.00     0.047 A 
BRANCH  16  19
ATOM     19  O   UNL     1     -14.568 -21.296  23.728  1.00  0.00    -0.508 OA
ATOM     20  H   UNL     1     -14.185 -20.737  24.482  1.00  0.00     0.293 HD
ENDBRANCH  16  19
ENDBRANCH   3  13
BRANCH  10  21
ATOM     21  O   UNL     1     -17.346 -16.098  14.743  1.00  0.00    -0.507 OA
ATOM     22  H   UNL     1     -16.619 -16.093  14.037  1.00  0.00     0.293 HD
ENDBRANCH  10  21
BRANCH  11  23
ATOM     23  O   UNL     1     -20.372 -19.853  14.603  1.00  0.00    -0.508 OA
ATOM     24  H   UNL     1     -20.928 -20.548  15.087  1.00  0.00     0.293 HD
ENDBRANCH  11  23
ENDBRANCH   1   2
BRANCH   1  25
ATOM     25  C   UNL     1     -13.202 -17.356  18.558  1.00  0.00     0.339 C 
ATOM     26  C   UNL     1     -12.614 -16.099  17.881  1.00  0.00     0.214 C 
ATOM     27  O   UNL     1     -12.405 -17.776  19.653  1.00  0.00    -0.332 OA
ATOM     28  C   UNL     1     -12.412 -14.972  18.907  1.00  0.00     0.180 C 
ATOM     29  C   UNL     1     -12.345 -16.787  20.669  1.00  0.00     0.179 C 
ATOM     30  C   UNL     1     -11.658 -15.505  20.143  1.00  0.00     0.177 C 
BRANCH  26  31
ATOM     31  O   UNL     1     -11.380 -16.411  17.288  1.00  0.00    -0.384 OA
ATOM     32  H   UNL     1     -10.676 -15.991  17.848  1.00  0.00     0.211 HD
ENDBRANCH  26  31
BRANCH  28  33
ATOM     33  O   UNL     1     -13.663 -14.450  19.280  1.00  0.00    -0.387 OA
ATOM     34  H   UNL     1     -13.682 -14.418  20.272  1.00  0.00     0.211 HD
ENDBRANCH  28  33
BRANCH  29  35
ATOM     35  C   UNL     1     -11.596 -17.375  21.871  1.00  0.00     0.191 C 
BRANCH  35  36
ATOM     36  O   UNL     1     -12.413 -18.282  22.561  1.00  0.00    -0.394 OA
ATOM     37  H   UNL     1     -12.293 -18.081  23.526  1.00  0.00     0.210 HD
ENDBRANCH  35  36
ENDBRANCH  29  35
BRANCH  30  38
ATOM     38  O   UNL     1     -11.628 -14.528  21.152  1.00  0.00    -0.387 OA
ATOM     39  H   UNL     1     -11.279 -14.972  21.969  1.00  0.00     0.211 HD
ENDBRANCH  30  38
ENDBRANCH   1  25
TORSDOF 11
ENDMDL
MODEL 4
REMARK VINA RESULT:    -6.292      4.236      6.574
REMARK INTER + INTRA:         -10.808
REMARK INTER:                  -9.406
REMARK INTRA:                  -1.402
REMARK UNBOUND:                -1.758
REMARK SMILES O=c1c(O[C@@H]2O[C@@H](CO)[C@H](O)[C@H](O)[C@H]2O)c(-c2ccc(O)cc2)oc2cc(O)cc(O)c12
REMARK SMILES IDX 4 1 3 2 16 3 24 4 2 5 25 6 1 7 32 8 26 9 30 10 27 11 29 12
REMARK SMILES IDX 17 13 18 14 19 15 20 16 23 17 22 18 21 19 31 21 28 23 5 25
REMARK SMILES IDX 14 26 6 27 12 28 7 29 10 30 15 31 13 33 8 35 9 36 11 38
REMARK H PARENT 21 20 31 22 28 24 15 32 13 34 9 37 11 39
REMARK Flexibility Score: inf
ROOT
ATOM      1  O   UNL     1     -11.363 -18.899  19.768  1.00  0.00    -0.454 OA
ENDROOT
BRANCH   1   2
ATOM      2  C   UNL     1     -10.250 -19.723  19.976  1.00  0.00     0.214 A 
ATOM      3  C   UNL     1      -9.175 -19.326  20.799  1.00  0.00     0.180 A 
ATOM      4  O   UNL     1      -8.102 -20.104  20.902  1.00  0.00    -0.452 OA
ATOM      5  C   UNL     1     -10.195 -20.969  19.345  1.00  0.00     0.239 A 
ATOM      6  C   UNL     1      -7.994 -21.280  20.295  1.00  0.00     0.146 A 
ATOM      7  O   UNL     1     -11.169 -21.342  18.635  1.00  0.00    -0.285 OA
ATOM      8  C   UNL     1      -9.049 -21.777  19.493  1.00  0.00     0.111 A 
ATOM      9  C   UNL     1      -6.826 -22.029  20.465  1.00  0.00     0.094 A 
ATOM     10  C   UNL     1      -8.908 -23.041  18.872  1.00  0.00     0.134 A 
ATOM     11  C   UNL     1      -6.691 -23.277  19.848  1.00  0.00     0.123 A 
ATOM     12  C   UNL     1      -7.728 -23.778  19.057  1.00  0.00     0.093 A 
BRANCH   3  13
ATOM     13  C   UNL     1      -9.201 -18.065  21.572  1.00  0.00     0.021 A 
ATOM     14  C   UNL     1      -9.570 -18.053  22.929  1.00  0.00     0.016 A 
ATOM     15  C   UNL     1      -9.587 -16.853  23.646  1.00  0.00     0.047 A 
ATOM     16  C   UNL     1      -9.218 -15.657  23.023  1.00  0.00     0.115 A 
ATOM     17  C   UNL     1      -8.809 -16.865  20.960  1.00  0.00     0.016 A 
ATOM     18  C   UNL     1      -8.824 -15.666  21.679  1.00  0.00     0.047 A 
BRANCH  16  19
ATOM     19  O   UNL     1      -9.241 -14.468  23.749  1.00  0.00    -0.508 OA
ATOM     20  H   UNL     1      -8.913 -14.426  24.707  1.00  0.00     0.293 HD
ENDBRANCH  16  19
ENDBRANCH   3  13
BRANCH  10  21
ATOM     21  O   UNL     1      -9.925 -23.567  18.076  1.00  0.00    -0.507 OA
ATOM     22  H   UNL     1     -10.658 -22.983  17.693  1.00  0.00     0.293 HD
ENDBRANCH  10  21
BRANCH  11  23
ATOM     23  O   UNL     1      -5.530 -24.028  20.014  1.00  0.00    -0.508 OA
ATOM     24  H   UNL     1      -5.470 -24.988  19.697  1.00  0.00     0.293 HD
ENDBRANCH  11  23
ENDBRANCH   1   2
BRANCH   1  25
ATOM     25  C   UNL     1     -11.511 -18.075  18.606  1.00  0.00     0.339 C 
ATOM     26  C   UNL     1     -12.751 -18.500  17.790  1.00  0.00     0.214 C 
ATOM     27  O   UNL     1     -11.572 -16.704  18.964  1.00  0.00    -0.332 OA
ATOM     28  C   UNL     1     -14.044 -18.164  18.550  1.00  0.00     0.180 C 
ATOM     29  C   UNL     1     -12.689 -16.426  19.793  1.00  0.00     0.179 C 
ATOM     30  C   UNL     1     -14.011 -16.701  19.038  1.00  0.00     0.177 C 
BRANCH  26  31
ATOM     31  O   UNL     1     -12.756 -17.839  16.552  1.00  0.00    -0.384 OA
ATOM     32  H   UNL     1     -12.635 -18.533  15.853  1.00  0.00     0.211 HD
ENDBRANCH  26  31
BRANCH  28  33
ATOM     33  O   UNL     1     -14.191 -19.044  19.637  1.00  0.00    -0.387 OA
ATOM     34  H   UNL     1     -14.568 -19.890  19.279  1.00  0.00     0.211 HD
ENDBRANCH  28  33
BRANCH  29  35
ATOM     35  C   UNL     1     -12.597 -14.967  20.255  1.00  0.00     0.191 C 
BRANCH  35  36
ATOM     36  O   UNL     1     -13.496 -14.168  19.534  1.00  0.00    -0.394 OA
ATOM     37  H   UNL     1     -14.324 -14.123  20.081  1.00  0.00     0.210 HD
ENDBRANCH  35  36
ENDBRANCH  29  35
BRANCH  30  38
ATOM     38  O   UNL     1     -15.107 -16.445  19.880  1.00  0.00    -0.387 OA
ATOM     39  H   UNL     1     -15.743 -15.888  19.358  1.00  0.00     0.211 HD
ENDBRANCH  30  38
ENDBRANCH   1  25
TORSDOF 11
ENDMDL
MODEL 5
REMARK VINA RESULT:    -6.287      3.497      6.212
REMARK INTER + INTRA:         -10.801
REMARK INTER:                  -9.234
REMARK INTRA:                  -1.567
REMARK UNBOUND:                -1.758
REMARK SMILES O=c1c(O[C@@H]2O[C@@H](CO)[C@H](O)[C@H](O)[C@H]2O)c(-c2ccc(O)cc2)oc2cc(O)cc(O)c12
REMARK SMILES IDX 4 1 3 2 16 3 24 4 2 5 25 6 1 7 32 8 26 9 30 10 27 11 29 12
REMARK SMILES IDX 17 13 18 14 19 15 20 16 23 17 22 18 21 19 31 21 28 23 5 25
REMARK SMILES IDX 14 26 6 27 12 28 7 29 10 30 15 31 13 33 8 35 9 36 11 38
REMARK H PARENT 21 20 31 22 28 24 15 32 13 34 9 37 11 39
REMARK Flexibility Score: inf
ROOT
ATOM      1  O   UNL     1     -10.080 -14.738  19.452  1.00  0.00    -0.454 OA
ENDROOT
BRANCH   1   2
ATOM      2  C   UNL     1     -10.780 -15.411  18.444  1.00  0.00     0.214 A 
ATOM      3  C   UNL     1     -10.143 -15.853  17.265  1.00  0.00     0.180 A 
ATOM      4  O   UNL     1     -10.863 -16.414  16.298  1.00  0.00    -0.452 OA
ATOM      5  C   UNL     1     -12.150 -15.644  18.601  1.00  0.00     0.239 A 
ATOM      6  C   UNL     1     -12.171 -16.625  16.392  1.00  0.00     0.146 A 
ATOM      7  O   UNL     1     -12.716 -15.280  19.668  1.00  0.00    -0.285 OA
ATOM      8  C   UNL     1     -12.878 -16.259  17.562  1.00  0.00     0.111 A 
ATOM      9  C   UNL     1     -12.843 -17.223  15.323  1.00  0.00     0.094 A 
ATOM     10  C   UNL     1     -14.268 -16.512  17.636  1.00  0.00     0.134 A 
ATOM     11  C   UNL     1     -14.217 -17.469  15.400  1.00  0.00     0.123 A 
ATOM     12  C   UNL     1     -14.924 -17.116  16.552  1.00  0.00     0.093 A 
BRANCH   3  13
ATOM     13  C   UNL     1      -8.684 -15.727  17.065  1.00  0.00     0.021 A 
ATOM     14  C   UNL     1      -7.789 -16.640  17.652  1.00  0.00     0.016 A 
ATOM     15  C   UNL     1      -6.411 -16.507  17.451  1.00  0.00     0.047 A 
ATOM     16  C   UNL     1      -5.914 -15.475  16.649  1.00  0.00     0.115 A 
ATOM     17  C   UNL     1      -8.179 -14.708  16.242  1.00  0.00     0.016 A 
ATOM     18  C   UNL     1      -6.802 -14.578  16.041  1.00  0.00     0.047 A 
BRANCH  16  19
ATOM     19  O   UNL     1      -4.539 -15.354  16.459  1.00  0.00    -0.508 OA
ATOM     20  H   UNL     1      -3.959 -14.833  17.107  1.00  0.00     0.293 HD
ENDBRANCH  16  19
ENDBRANCH   3  13
BRANCH  10  21
ATOM     21  O   UNL     1     -15.001 -16.169  18.773  1.00  0.00    -0.507 OA
ATOM     22  H   UNL     1     -14.681 -16.405  19.705  1.00  0.00     0.293 HD
ENDBRANCH  10  21
BRANCH  11  23
ATOM     23  O   UNL     1     -14.892 -18.066  14.337  1.00  0.00    -0.508 OA
ATOM     24  H   UNL     1     -15.712 -17.639  13.923  1.00  0.00     0.293 HD
ENDBRANCH  11  23
ENDBRANCH   1   2
BRANCH   1  25
ATOM     25  C   UNL     1      -9.696 -13.363  19.344  1.00  0.00     0.339 C 
ATOM     26  C   UNL     1     -10.657 -12.464  20.152  1.00  0.00     0.214 C 
ATOM     27  O   UNL     1      -8.350 -13.181  19.753  1.00  0.00    -0.332 OA
ATOM     28  C   UNL     1     -10.480 -12.695  21.661  1.00  0.00     0.180 C 
ATOM     29  C   UNL     1      -8.160 -13.541  21.112  1.00  0.00     0.179 C 
ATOM     30  C   UNL     1      -8.986 -12.622  22.041  1.00  0.00     0.177 C 
BRANCH  26  31
ATOM     31  O   UNL     1     -10.405 -11.114  19.858  1.00  0.00    -0.384 OA
ATOM     32  H   UNL     1      -9.739 -11.098  19.122  1.00  0.00     0.211 HD
ENDBRANCH  26  31
BRANCH  28  33
ATOM     33  O   UNL     1     -11.017 -13.948  22.008  1.00  0.00    -0.387 OA
ATOM     34  H   UNL     1     -11.908 -14.014  21.575  1.00  0.00     0.211 HD
ENDBRANCH  28  33
BRANCH  29  35
ATOM     35  C   UNL     1      -6.661 -13.460  21.428  1.00  0.00     0.191 C 
BRANCH  35  36
ATOM     36  O   UNL     1      -6.283 -14.508  22.278  1.00  0.00    -0.394 OA
ATOM     37  H   UNL     1      -5.330 -14.698  22.073  1.00  0.00     0.210 HD
ENDBRANCH  35  36
ENDBRANCH  29  35
BRANCH  30  38
ATOM     38  O   UNL     1      -8.807 -13.006  23.381  1.00  0.00    -0.387 OA
ATOM     39  H   UNL     1      -9.300 -13.859  23.502  1.00  0.00     0.211 HD
ENDBRANCH  30  38
ENDBRANCH   1  25
TORSDOF 11
ENDMDL
MODEL 6
REMARK VINA RESULT:    -6.202      3.771      6.819
REMARK INTER + INTRA:         -10.678
REMARK INTER:                  -9.049
REMARK INTRA:                  -1.629
REMARK UNBOUND:                -1.758
REMARK SMILES O=c1c(O[C@@H]2O[C@@H](CO)[C@H](O)[C@H](O)[C@H]2O)c(-c2ccc(O)cc2)oc2cc(O)cc(O)c12
REMARK SMILES IDX 4 1 3 2 16 3 24 4 2 5 25 6 1 7 32 8 26 9 30 10 27 11 29 12
REMARK SMILES IDX 17 13 18 14 19 15 20 16 23 17 22 18 21 19 31 21 28 23 5 25
REMARK SMILES IDX 14 26 6 27 12 28 7 29 10 30 15 31 13 33 8 35 9 36 11 38
REMARK H PARENT 21 20 31 22 28 24 15 32 13 34 9 37 11 39
REMARK Flexibility Score: inf
ROOT
ATOM      1  O   UNL     1     -10.236 -19.395  20.248  1.00  0.00    -0.454 OA
ENDROOT
BRANCH   1   2
ATOM      2  C   UNL     1     -10.357 -18.050  20.619  1.00  0.00     0.214 A 
ATOM      3  C   UNL     1     -11.614 -17.454  20.854  1.00  0.00     0.180 A 
ATOM      4  O   UNL     1     -11.687 -16.154  21.122  1.00  0.00    -0.452 OA
ATOM      5  C   UNL     1      -9.203 -17.271  20.749  1.00  0.00     0.239 A 
ATOM      6  C   UNL     1     -10.620 -15.370  21.224  1.00  0.00     0.146 A 
ATOM      7  O   UNL     1      -8.076 -17.808  20.572  1.00  0.00    -0.285 OA
ATOM      8  C   UNL     1      -9.318 -15.899  21.054  1.00  0.00     0.111 A 
ATOM      9  C   UNL     1     -10.795 -14.014  21.511  1.00  0.00     0.094 A 
ATOM     10  C   UNL     1      -8.201 -15.040  21.184  1.00  0.00     0.134 A 
ATOM     11  C   UNL     1      -9.689 -13.168  21.637  1.00  0.00     0.123 A 
ATOM     12  C   UNL     1      -8.399 -13.682  21.475  1.00  0.00     0.093 A 
BRANCH   3  13
ATOM     13  C   UNL     1     -12.871 -18.233  20.826  1.00  0.00     0.021 A 
ATOM     14  C   UNL     1     -13.332 -18.908  21.971  1.00  0.00     0.016 A 
ATOM     15  C   UNL     1     -14.524 -19.638  21.927  1.00  0.00     0.047 A 
ATOM     16  C   UNL     1     -15.276 -19.687  20.750  1.00  0.00     0.115 A 
ATOM     17  C   UNL     1     -13.643 -18.266  19.655  1.00  0.00     0.016 A 
ATOM     18  C   UNL     1     -14.835 -18.995  19.614  1.00  0.00     0.047 A 
BRANCH  16  19
ATOM     19  O   UNL     1     -16.461 -20.420  20.721  1.00  0.00    -0.508 OA
ATOM     20  H   UNL     1     -16.492 -21.388  21.021  1.00  0.00     0.293 HD
ENDBRANCH  16  19
ENDBRANCH   3  13
BRANCH  10  21
ATOM     21  O   UNL     1      -6.901 -15.523  21.026  1.00  0.00    -0.507 OA
ATOM     22  H   UNL     1      -6.671 -16.496  21.186  1.00  0.00     0.293 HD
ENDBRANCH  10  21
BRANCH  11  23
ATOM     23  O   UNL     1      -9.858 -11.816  21.923  1.00  0.00    -0.508 OA
ATOM     24  H   UNL     1      -9.886 -11.118  21.190  1.00  0.00     0.293 HD
ENDBRANCH  11  23
ENDBRANCH   1   2
BRANCH   1  25
ATOM     25  C   UNL     1     -10.238 -19.827  18.883  1.00  0.00     0.339 C 
ATOM     26  C   UNL     1      -8.979 -20.668  18.576  1.00  0.00     0.214 C 
ATOM     27  O   UNL     1     -11.425 -20.541  18.580  1.00  0.00    -0.332 OA
ATOM     28  C   UNL     1      -9.036 -22.019  19.306  1.00  0.00     0.180 C 
ATOM     29  C   UNL     1     -11.547 -21.715  19.368  1.00  0.00     0.179 C 
ATOM     30  C   UNL     1     -10.398 -22.702  19.059  1.00  0.00     0.177 C 
BRANCH  26  31
ATOM     31  O   UNL     1      -8.883 -20.892  17.193  1.00  0.00    -0.384 OA
ATOM     32  H   UNL     1      -9.339 -21.755  17.008  1.00  0.00     0.211 HD
ENDBRANCH  26  31
BRANCH  28  33
ATOM     33  O   UNL     1      -8.828 -21.817  20.682  1.00  0.00    -0.387 OA
ATOM     34  H   UNL     1      -8.518 -20.880  20.795  1.00  0.00     0.211 HD
ENDBRANCH  28  33
BRANCH  29  35
ATOM     35  C   UNL     1     -12.919 -22.342  19.090  1.00  0.00     0.191 C 
BRANCH  35  36
ATOM     36  O   UNL     1     -13.326 -23.129  20.176  1.00  0.00    -0.394 OA
ATOM     37  H   UNL     1     -13.383 -22.514  20.954  1.00  0.00     0.210 HD
ENDBRANCH  35  36
ENDBRANCH  29  35
BRANCH  30  38
ATOM     38  O   UNL     1     -10.519 -23.848  19.864  1.00  0.00    -0.387 OA
ATOM     39  H   UNL     1      -9.646 -24.320  19.821  1.00  0.00     0.211 HD
ENDBRANCH  30  38
ENDBRANCH   1  25
TORSDOF 11
ENDMDL
MODEL 7
REMARK VINA RESULT:    -6.152      3.054      5.379
REMARK INTER + INTRA:         -10.607
REMARK INTER:                  -9.679
REMARK INTRA:                  -0.928
REMARK UNBOUND:                -1.758
REMARK SMILES O=c1c(O[C@@H]2O[C@@H](CO)[C@H](O)[C@H](O)[C@H]2O)c(-c2ccc(O)cc2)oc2cc(O)cc(O)c12
REMARK SMILES IDX 4 1 3 2 16 3 24 4 2 5 25 6 1 7 32 8 26 9 30 10 27 11 29 12
REMARK SMILES IDX 17 13 18 14 19 15 20 16 23 17 22 18 21 19 31 21 28 23 5 25
REMARK SMILES IDX 14 26 6 27 12 28 7 29 10 30 15 31 13 33 8 35 9 36 11 38
REMARK H PARENT 21 20 31 22 28 24 15 32 13 34 9 37 11 39
REMARK Flexibility Score: inf
ROOT
ATOM      1  O   UNL     1     -10.001 -14.793  20.433  1.00  0.00    -0.454 OA
ENDROOT
BRANCH   1   2
ATOM      2  C   UNL     1     -10.591 -15.325  19.280  1.00  0.00     0.214 A 
ATOM      3  C   UNL     1      -9.940 -15.293  18.029  1.00  0.00     0.180 A 
ATOM      4  O   UNL     1     -10.572 -15.734  16.945  1.00  0.00    -0.452 OA
ATOM      5  C   UNL     1     -11.865 -15.895  19.365  1.00  0.00     0.239 A 
ATOM      6  C   UNL     1     -11.793 -16.253  16.975  1.00  0.00     0.146 A 
ATOM      7  O   UNL     1     -12.436 -15.956  20.488  1.00  0.00    -0.285 OA
ATOM      8  C   UNL     1     -12.497 -16.371  18.198  1.00  0.00     0.111 A 
ATOM      9  C   UNL     1     -12.377 -16.693  15.784  1.00  0.00     0.094 A 
ATOM     10  C   UNL     1     -13.791 -16.944  18.198  1.00  0.00     0.134 A 
ATOM     11  C   UNL     1     -13.656 -17.256  15.789  1.00  0.00     0.123 A 
ATOM     12  C   UNL     1     -14.357 -17.381  16.991  1.00  0.00     0.093 A 
BRANCH   3  13
ATOM     13  C   UNL     1      -8.557 -14.790  17.875  1.00  0.00     0.021 A 
ATOM     14  C   UNL     1      -7.467 -15.677  17.799  1.00  0.00     0.016 A 
ATOM     15  C   UNL     1      -6.167 -15.185  17.651  1.00  0.00     0.047 A 
ATOM     16  C   UNL     1      -5.942 -13.809  17.559  1.00  0.00     0.115 A 
ATOM     17  C   UNL     1      -8.326 -13.411  17.757  1.00  0.00     0.016 A 
ATOM     18  C   UNL     1      -7.026 -12.922  17.607  1.00  0.00     0.047 A 
BRANCH  16  19
ATOM     19  O   UNL     1      -4.640 -13.333  17.413  1.00  0.00    -0.508 OA
ATOM     20  H   UNL     1      -4.291 -13.010  16.518  1.00  0.00     0.293 HD
ENDBRANCH  16  19
ENDBRANCH   3  13
BRANCH  10  21
ATOM     21  O   UNL     1     -14.516 -17.080  19.382  1.00  0.00    -0.507 OA
ATOM     22  H   UNL     1     -15.511 -17.270  19.379  1.00  0.00     0.293 HD
ENDBRANCH  10  21
BRANCH  11  23
ATOM     23  O   UNL     1     -14.242 -17.697  14.604  1.00  0.00    -0.508 OA
ATOM     24  H   UNL     1     -14.233 -18.675  14.340  1.00  0.00     0.293 HD
ENDBRANCH  11  23
ENDBRANCH   1   2
BRANCH   1  25
ATOM     25  C   UNL     1      -8.722 -15.218  20.916  1.00  0.00     0.339 C 
ATOM     26  C   UNL     1      -8.162 -14.205  21.939  1.00  0.00     0.214 C 
ATOM     27  O   UNL     1      -8.798 -16.522  21.468  1.00  0.00    -0.332 OA
ATOM     28  C   UNL     1      -8.984 -14.230  23.236  1.00  0.00     0.180 C 
ATOM     29  C   UNL     1      -9.679 -16.572  22.578  1.00  0.00     0.179 C 
ATOM     30  C   UNL     1      -9.157 -15.682  23.730  1.00  0.00     0.177 C 
BRANCH  26  31
ATOM     31  O   UNL     1      -6.824 -14.515  22.232  1.00  0.00    -0.384 OA
ATOM     32  H   UNL     1      -6.815 -15.440  22.591  1.00  0.00     0.211 HD
ENDBRANCH  26  31
BRANCH  28  33
ATOM     33  O   UNL     1     -10.237 -13.634  23.009  1.00  0.00    -0.387 OA
ATOM     34  H   UNL     1     -10.381 -12.971  23.734  1.00  0.00     0.211 HD
ENDBRANCH  28  33
BRANCH  29  35
ATOM     35  C   UNL     1      -9.820 -18.035  23.017  1.00  0.00     0.191 C 
BRANCH  35  36
ATOM     36  O   UNL     1      -8.770 -18.392  23.875  1.00  0.00    -0.394 OA
ATOM     37  H   UNL     1      -9.176 -18.952  24.587  1.00  0.00     0.210 HD
ENDBRANCH  35  36
ENDBRANCH  29  35
BRANCH  30  38
ATOM     38  O   UNL     1     -10.052 -15.723  24.813  1.00  0.00    -0.387 OA
ATOM     39  H   UNL     1      -9.616 -16.264  25.523  1.00  0.00     0.211 HD
ENDBRANCH  30  38
ENDBRANCH   1  25
TORSDOF 11
ENDMDL
MODEL 8
REMARK VINA RESULT:    -6.124      3.275      6.563
REMARK INTER + INTRA:         -10.567
REMARK INTER:                  -9.017
REMARK INTRA:                  -1.550
REMARK UNBOUND:                -1.758
REMARK SMILES O=c1c(O[C@@H]2O[C@@H](CO)[C@H](O)[C@H](O)[C@H]2O)c(-c2ccc(O)cc2)oc2cc(O)cc(O)c12
REMARK SMILES IDX 4 1 3 2 16 3 24 4 2 5 25 6 1 7 32 8 26 9 30 10 27 11 29 12
REMARK SMILES IDX 17 13 18 14 19 15 20 16 23 17 22 18 21 19 31 21 28 23 5 25
REMARK SMILES IDX 14 26 6 27 12 28 7 29 10 30 15 31 13 33 8 35 9 36 11 38
REMARK H PARENT 21 20 31 22 28 24 15 32 13 34 9 37 11 39
REMARK Flexibility Score: inf
ROOT
ATOM      1  O   UNL     1      -9.707 -17.642  19.565  1.00  0.00    -0.454 OA
ENDROOT
BRANCH   1   2
ATOM      2  C   UNL     1     -11.078 -17.862  19.749  1.00  0.00     0.214 A 
ATOM      3  C   UNL     1     -11.973 -16.801  20.002  1.00  0.00     0.180 A 
ATOM      4  O   UNL     1     -13.252 -17.064  20.254  1.00  0.00    -0.452 OA
ATOM      5  C   UNL     1     -11.574 -19.168  19.692  1.00  0.00     0.239 A 
ATOM      6  C   UNL     1     -13.759 -18.291  20.241  1.00  0.00     0.146 A 
ATOM      7  O   UNL     1     -10.783 -20.115  19.433  1.00  0.00    -0.285 OA
ATOM      8  C   UNL     1     -12.941 -19.407  19.944  1.00  0.00     0.111 A 
ATOM      9  C   UNL     1     -15.118 -18.469  20.516  1.00  0.00     0.094 A 
ATOM     10  C   UNL     1     -13.516 -20.699  19.924  1.00  0.00     0.134 A 
ATOM     11  C   UNL     1     -15.682 -19.748  20.497  1.00  0.00     0.123 A 
ATOM     12  C   UNL     1     -14.883 -20.856  20.201  1.00  0.00     0.093 A 
BRANCH   3  13
ATOM     13  C   UNL     1     -11.540 -15.387  19.987  1.00  0.00     0.021 A 
ATOM     14  C   UNL     1     -11.393 -14.686  18.776  1.00  0.00     0.016 A 
ATOM     15  C   UNL     1     -10.985 -13.348  18.779  1.00  0.00     0.047 A 
ATOM     16  C   UNL     1     -10.739 -12.692  19.989  1.00  0.00     0.115 A 
ATOM     17  C   UNL     1     -11.314 -14.714  21.198  1.00  0.00     0.016 A 
ATOM     18  C   UNL     1     -10.909 -13.377  21.199  1.00  0.00     0.047 A 
BRANCH  16  19
ATOM     19  O   UNL     1     -10.331 -11.359  19.977  1.00  0.00    -0.508 OA
ATOM     20  H   UNL     1     -11.002 -10.601  19.924  1.00  0.00     0.293 HD
ENDBRANCH  16  19
ENDBRANCH   3  13
BRANCH  10  21
ATOM     21  O   UNL     1     -12.745 -21.825  19.634  1.00  0.00    -0.507 OA
ATOM     22  H   UNL     1     -12.315 -22.379  20.365  1.00  0.00     0.293 HD
ENDBRANCH  10  21
BRANCH  11  23
ATOM     23  O   UNL     1     -17.035 -19.932  20.770  1.00  0.00    -0.508 OA
ATOM     24  H   UNL     1     -17.745 -19.345  20.348  1.00  0.00     0.293 HD
ENDBRANCH  11  23
ENDBRANCH   1   2
BRANCH   1  25
ATOM     25  C   UNL     1      -8.737 -17.890  20.588  1.00  0.00     0.339 C 
ATOM     26  C   UNL     1      -7.512 -18.632  20.010  1.00  0.00     0.214 C 
ATOM     27  O   UNL     1      -8.357 -16.682  21.227  1.00  0.00    -0.332 OA
ATOM     28  C   UNL     1      -6.713 -17.715  19.071  1.00  0.00     0.180 C 
ATOM     29  C   UNL     1      -7.753 -15.775  20.318  1.00  0.00     0.179 C 
ATOM     30  C   UNL     1      -6.437 -16.360  19.756  1.00  0.00     0.177 C 
BRANCH  26  31
ATOM     31  O   UNL     1      -6.680 -19.062  21.056  1.00  0.00    -0.384 OA
ATOM     32  H   UNL     1      -6.688 -20.055  21.042  1.00  0.00     0.211 HD
ENDBRANCH  26  31
BRANCH  28  33
ATOM     33  O   UNL     1      -7.432 -17.527  17.877  1.00  0.00    -0.387 OA
ATOM     34  H   UNL     1      -6.773 -17.540  17.135  1.00  0.00     0.211 HD
ENDBRANCH  28  33
BRANCH  29  35
ATOM     35  C   UNL     1      -7.513 -14.448  21.049  1.00  0.00     0.191 C 
BRANCH  35  36
ATOM     36  O   UNL     1      -6.309 -14.496  21.767  1.00  0.00    -0.394 OA
ATOM     37  H   UNL     1      -6.536 -14.247  22.701  1.00  0.00     0.210 HD
ENDBRANCH  35  36
ENDBRANCH  29  35
BRANCH  30  38
ATOM     38  O   UNL     1      -5.864 -15.461  18.841  1.00  0.00    -0.387 OA
ATOM     39  H   UNL     1      -6.609 -14.926  18.461  1.00  0.00     0.211 HD
ENDBRANCH  30  38
ENDBRANCH   1  25
TORSDOF 11
ENDMDL
MODEL 9
REMARK VINA RESULT:    -6.106      3.460      5.512
REMARK INTER + INTRA:         -10.542
REMARK INTER:                  -8.919
REMARK INTRA:                  -1.623
REMARK UNBOUND:                -1.758
REMARK SMILES O=c1c(O[C@@H]2O[C@@H](CO)[C@H](O)[C@H](O)[C@H]2O)c(-c2ccc(O)cc2)oc2cc(O)cc(O)c12
REMARK SMILES IDX 4 1 3 2 16 3 24 4 2 5 25 6 1 7 32 8 26 9 30 10 27 11 29 12
REMARK SMILES IDX 17 13 18 14 19 15 20 16 23 17 22 18 21 19 31 21 28 23 5 25
REMARK SMILES IDX 14 26 6 27 12 28 7 29 10 30 15 31 13 33 8 35 9 36 11 38
REMARK H PARENT 21 20 31 22 28 24 15 32 13 34 9 37 11 39
REMARK Flexibility Score: inf
ROOT
ATOM      1  O   UNL     1      -9.284 -14.981  17.971  1.00  0.00    -0.454 OA
ENDROOT
BRANCH   1   2
ATOM      2  C   UNL     1     -10.650 -15.284  17.914  1.00  0.00     0.214 A 
ATOM      3  C   UNL     1     -11.539 -14.901  18.940  1.00  0.00     0.180 A 
ATOM      4  O   UNL     1     -12.812 -15.283  18.885  1.00  0.00    -0.452 OA
ATOM      5  C   UNL     1     -11.147 -15.995  16.817  1.00  0.00     0.239 A 
ATOM      6  C   UNL     1     -13.319 -15.985  17.879  1.00  0.00     0.146 A 
ATOM      7  O   UNL     1     -10.361 -16.310  15.882  1.00  0.00    -0.285 OA
ATOM      8  C   UNL     1     -12.507 -16.366  16.784  1.00  0.00     0.111 A 
ATOM      9  C   UNL     1     -14.671 -16.339  17.907  1.00  0.00     0.094 A 
ATOM     10  C   UNL     1     -13.082 -17.101  15.720  1.00  0.00     0.134 A 
ATOM     11  C   UNL     1     -15.234 -17.067  16.855  1.00  0.00     0.123 A 
ATOM     12  C   UNL     1     -14.442 -17.444  15.767  1.00  0.00     0.093 A 
BRANCH   3  13
ATOM     13  C   UNL     1     -11.108 -14.070  20.085  1.00  0.00     0.021 A 
ATOM     14  C   UNL     1     -10.870 -14.643  21.348  1.00  0.00     0.016 A 
ATOM     15  C   UNL     1     -10.460 -13.843  22.419  1.00  0.00     0.047 A 
ATOM     16  C   UNL     1     -10.267 -12.470  22.238  1.00  0.00     0.115 A 
ATOM     17  C   UNL     1     -10.889 -12.696  19.905  1.00  0.00     0.016 A 
ATOM     18  C   UNL     1     -10.478 -11.899  20.976  1.00  0.00     0.047 A 
BRANCH  16  19
ATOM     19  O   UNL     1      -9.861 -11.685  23.316  1.00  0.00    -0.508 OA
ATOM     20  H   UNL     1      -9.031 -11.104  23.264  1.00  0.00     0.293 HD
ENDBRANCH  16  19
ENDBRANCH   3  13
BRANCH  10  21
ATOM     21  O   UNL     1     -12.316 -17.492  14.621  1.00  0.00    -0.507 OA
ATOM     22  H   UNL     1     -12.487 -17.123  13.694  1.00  0.00     0.293 HD
ENDBRANCH  10  21
BRANCH  11  23
ATOM     23  O   UNL     1     -16.581 -17.422  16.878  1.00  0.00    -0.508 OA
ATOM     24  H   UNL     1     -17.314 -16.724  16.845  1.00  0.00     0.293 HD
ENDBRANCH  11  23
ENDBRANCH   1   2
BRANCH   1  25
ATOM     25  C   UNL     1      -8.305 -15.903  18.461  1.00  0.00     0.339 C 
ATOM     26  C   UNL     1      -7.104 -15.988  17.494  1.00  0.00     0.214 C 
ATOM     27  O   UNL     1      -7.890 -15.550  19.771  1.00  0.00    -0.332 OA
ATOM     28  C   UNL     1      -6.300 -14.678  17.507  1.00  0.00     0.180 C 
ATOM     29  C   UNL     1      -7.281 -14.269  19.803  1.00  0.00     0.179 C 
ATOM     30  C   UNL     1      -5.986 -14.259  18.959  1.00  0.00     0.177 C 
BRANCH  26  31
ATOM     31  O   UNL     1      -6.265 -17.049  17.869  1.00  0.00    -0.384 OA
ATOM     32  H   UNL     1      -5.522 -16.657  18.398  1.00  0.00     0.211 HD
ENDBRANCH  26  31
BRANCH  28  33
ATOM     33  O   UNL     1      -7.032 -13.672  16.851  1.00  0.00    -0.387 OA
ATOM     34  H   UNL     1      -7.247 -12.979  17.529  1.00  0.00     0.211 HD
ENDBRANCH  28  33
BRANCH  29  35
ATOM     35  C   UNL     1      -7.003 -13.903  21.266  1.00  0.00     0.191 C 
BRANCH  35  36
ATOM     36  O   UNL     1      -5.804 -14.489  21.697  1.00  0.00    -0.394 OA
ATOM     37  H   UNL     1      -5.538 -15.126  20.983  1.00  0.00     0.210 HD
ENDBRANCH  35  36
ENDBRANCH  29  35
BRANCH  30  38
ATOM     38  O   UNL     1      -5.408 -12.979  18.980  1.00  0.00    -0.387 OA
ATOM     39  H   UNL     1      -4.584 -13.047  19.531  1.00  0.00     0.211 HD
ENDBRANCH  30  38
ENDBRANCH   1  25
TORSDOF 11
ENDMDL
