MODEL 1
REMARK VINA RESULT:    -2.606      0.000      0.000
REMARK INTER + INTRA:          -8.022
REMARK INTER:                  -5.043
REMARK INTRA:                  -2.979
REMARK UNBOUND:                -2.979
REMARK SMILES CCCCCCCCCCCCCCCCCC(=O)[O-]
REMARK SMILES IDX 10 1 11 2 12 3 13 4 14 5 15 6 16 7 17 8 18 9 19 10 20 11
REMARK SMILES IDX 9 12 8 13 7 14 6 15 5 16 4 17 3 18 2 19 1 20
REMARK H PARENT
REMARK Flexibility Score: inf
ROOT
ATOM      1  C   UNL     1       8.019  -2.107  -1.983  1.00  0.00     0.000 C 
ENDROOT
BRANCH   1   2
ATOM      2  C   UNL     1       7.261  -1.802  -3.287  1.00  0.00     0.000 C 
BRANCH   2   3
ATOM      3  C   UNL     1       6.873  -0.319  -3.422  1.00  0.00     0.000 C 
BRANCH   3   4
ATOM      4  C   UNL     1       7.360   0.590  -2.278  1.00  0.00     0.000 C 
BRANCH   4   5
ATOM      5  C   UNL     1       7.215   2.086  -2.598  1.00  0.00     0.000 C 
BRANCH   5   6
ATOM      6  C   UNL     1       8.134   2.930  -1.708  1.00  0.00     0.000 C 
BRANCH   6   7
ATOM      7  C   UNL     1       7.468   3.234  -0.360  1.00  0.00     0.006 C 
BRANCH   7   8
ATOM      8  C   UNL     1       8.504   3.662   0.683  1.00  0.00     0.053 C 
BRANCH   8   9
ATOM      9  C   UNL     1       7.986   3.419   2.065  1.00  0.00     0.041 C 
ATOM     10  O   UNL     1       6.811   3.755   2.369  1.00  0.00    -0.550 OA
ATOM     11  O   UNL     1       8.781   2.769   3.000  1.00  0.00    -0.550 OA
ENDBRANCH   8   9
ENDBRANCH   7   8
ENDBRANCH   6   7
ENDBRANCH   5   6
ENDBRANCH   4   5
ENDBRANCH   3   4
ENDBRANCH   2   3
ENDBRANCH   1   2
BRANCH   1  12
ATOM     12  C   UNL     1       9.462  -2.574  -2.233  1.00  0.00     0.000 C 
BRANCH  12  13
ATOM     13  C   UNL     1      10.416  -1.414  -2.569  1.00  0.00    -0.000 C 
BRANCH  13  14
ATOM     14  C   UNL     1      11.204  -0.932  -1.331  1.00  0.00    -0.000 C 
BRANCH  14  15
ATOM     15  C   UNL     1      10.808   0.478  -0.861  1.00  0.00    -0.000 C 
BRANCH  15  16
ATOM     16  C   UNL     1      10.413   0.521   0.624  1.00  0.00    -0.000 C 
BRANCH  16  17
ATOM     17  C   UNL     1       9.018  -0.074   0.879  1.00  0.00    -0.000 C 
BRANCH  17  18
ATOM     18  C   UNL     1       8.971  -0.971   2.125  1.00  0.00    -0.000 C 
BRANCH  18  19
ATOM     19  C   UNL     1       8.697  -2.428   1.740  1.00  0.00    -0.003 C 
ATOM     20  C   UNL     1       9.990  -3.168   1.414  1.00  0.00     0.004 C 
ENDBRANCH  18  19
ENDBRANCH  17  18
ENDBRANCH  16  17
ENDBRANCH  15  16
ENDBRANCH  14  15
ENDBRANCH  13  14
ENDBRANCH  12  13
ENDBRANCH   1  12
TORSDOF 16
ENDMDL
MODEL 2
REMARK VINA RESULT:    -2.555      1.406      3.159
REMARK INTER + INTRA:          -7.924
REMARK INTER:                  -5.441
REMARK INTRA:                  -2.483
REMARK UNBOUND:                -2.979
REMARK SMILES CCCCCCCCCCCCCCCCCC(=O)[O-]
REMARK SMILES IDX 10 1 11 2 12 3 13 4 14 5 15 6 16 7 17 8 18 9 19 10 20 11
REMARK SMILES IDX 9 12 8 13 7 14 6 15 5 16 4 17 3 18 2 19 1 20
REMARK H PARENT
REMARK Flexibility Score: inf
ROOT
ATOM      1  C   UNL     1       6.838  -1.420  -3.678  1.00  0.00     0.000 C 
ENDROOT
BRANCH   1   2
ATOM      2  C   UNL     1       6.911   0.116  -3.639  1.00  0.00     0.000 C 
BRANCH   2   3
ATOM      3  C   UNL     1       7.791   0.644  -2.491  1.00  0.00     0.000 C 
BRANCH   3   4
ATOM      4  C   UNL     1       7.451   2.066  -2.008  1.00  0.00     0.000 C 
BRANCH   4   5
ATOM      5  C   UNL     1       8.138   2.430  -0.683  1.00  0.00     0.000 C 
BRANCH   5   6
ATOM      6  C   UNL     1       8.683   1.179   0.016  1.00  0.00     0.000 C 
BRANCH   6   7
ATOM      7  C   UNL     1       9.138   1.501   1.444  1.00  0.00     0.006 C 
BRANCH   7   8
ATOM      8  C   UNL     1       8.649   2.885   1.880  1.00  0.00     0.053 C 
BRANCH   8   9
ATOM      9  C   UNL     1       7.520   2.759   2.853  1.00  0.00     0.041 C 
ATOM     10  O   UNL     1       6.797   3.756   3.118  1.00  0.00    -0.550 OA
ATOM     11  O   UNL     1       7.228   1.527   3.423  1.00  0.00    -0.550 OA
ENDBRANCH   8   9
ENDBRANCH   7   8
ENDBRANCH   6   7
ENDBRANCH   5   6
ENDBRANCH   4   5
ENDBRANCH   3   4
ENDBRANCH   2   3
ENDBRANCH   1   2
BRANCH   1  12
ATOM     12  C   UNL     1       7.587  -2.078  -2.509  1.00  0.00     0.000 C 
BRANCH  12  13
ATOM     13  C   UNL     1       7.956  -3.547  -2.785  1.00  0.00    -0.000 C 
BRANCH  13  14
ATOM     14  C   UNL     1       8.837  -4.147  -1.668  1.00  0.00    -0.000 C 
BRANCH  14  15
ATOM     15  C   UNL     1       9.000  -3.221  -0.450  1.00  0.00    -0.000 C 
BRANCH  15  16
ATOM     16  C   UNL     1      10.471  -2.979  -0.079  1.00  0.00    -0.000 C 
BRANCH  16  17
ATOM     17  C   UNL     1      11.321  -2.552  -1.288  1.00  0.00    -0.000 C 
BRANCH  17  18
ATOM     18  C   UNL     1      11.160  -1.064  -1.633  1.00  0.00    -0.000 C 
BRANCH  18  19
ATOM     19  C   UNL     1      11.038  -0.866  -3.148  1.00  0.00    -0.003 C 
ATOM     20  C   UNL     1      11.231  -2.181  -3.896  1.00  0.00     0.004 C 
ENDBRANCH  18  19
ENDBRANCH  17  18
ENDBRANCH  16  17
ENDBRANCH  15  16
ENDBRANCH  14  15
ENDBRANCH  13  14
ENDBRANCH  12  13
ENDBRANCH   1  12
TORSDOF 16
ENDMDL
MODEL 3
REMARK VINA RESULT:    -2.492      1.574      2.931
REMARK INTER + INTRA:          -7.802
REMARK INTER:                  -5.977
REMARK INTRA:                  -1.825
REMARK UNBOUND:                -2.979
REMARK SMILES CCCCCCCCCCCCCCCCCC(=O)[O-]
REMARK SMILES IDX 10 1 11 2 12 3 13 4 14 5 15 6 16 7 17 8 18 9 19 10 20 11
REMARK SMILES IDX 9 12 8 13 7 14 6 15 5 16 4 17 3 18 2 19 1 20
REMARK H PARENT
REMARK Flexibility Score: inf
ROOT
ATOM      1  C   UNL     1       9.602  -3.279  -2.346  1.00  0.00     0.000 C 
ENDROOT
BRANCH   1   2
ATOM      2  C   UNL     1       8.857  -2.218  -3.176  1.00  0.00     0.000 C 
BRANCH   2   3
ATOM      3  C   UNL     1       7.714  -1.542  -2.396  1.00  0.00     0.000 C 
BRANCH   3   4
ATOM      4  C   UNL     1       7.085  -0.319  -3.089  1.00  0.00     0.000 C 
BRANCH   4   5
ATOM      5  C   UNL     1       7.361   0.997  -2.347  1.00  0.00     0.000 C 
BRANCH   5   6
ATOM      6  C   UNL     1       6.613   2.164  -3.002  1.00  0.00     0.000 C 
BRANCH   6   7
ATOM      7  C   UNL     1       7.011   3.500  -2.364  1.00  0.00     0.006 C 
BRANCH   7   8
ATOM      8  C   UNL     1       7.400   3.315  -0.895  1.00  0.00     0.053 C 
BRANCH   8   9
ATOM      9  C   UNL     1       6.617   4.245  -0.024  1.00  0.00     0.041 C 
ATOM     10  O   UNL     1       5.437   4.560  -0.333  1.00  0.00    -0.550 OA
ATOM     11  O   UNL     1       7.167   4.719   1.160  1.00  0.00    -0.550 OA
ENDBRANCH   8   9
ENDBRANCH   7   8
ENDBRANCH   6   7
ENDBRANCH   5   6
ENDBRANCH   4   5
ENDBRANCH   3   4
ENDBRANCH   2   3
ENDBRANCH   1   2
BRANCH   1  12
ATOM     12  C   UNL     1       8.726  -3.885  -1.238  1.00  0.00     0.000 C 
BRANCH  12  13
ATOM     13  C   UNL     1       9.542  -4.659  -0.188  1.00  0.00    -0.000 C 
BRANCH  13  14
ATOM     14  C   UNL     1       9.807  -3.818   1.080  1.00  0.00    -0.000 C 
BRANCH  14  15
ATOM     15  C   UNL     1       8.540  -3.165   1.660  1.00  0.00    -0.000 C 
BRANCH  15  16
ATOM     16  C   UNL     1       8.758  -1.697   2.059  1.00  0.00    -0.000 C 
BRANCH  16  17
ATOM     17  C   UNL     1       9.107  -0.804   0.857  1.00  0.00    -0.000 C 
BRANCH  17  18
ATOM     18  C   UNL     1       8.913   0.691   1.149  1.00  0.00    -0.000 C 
BRANCH  18  19
ATOM     19  C   UNL     1       8.875   0.952   2.659  1.00  0.00    -0.003 C 
ATOM     20  C   UNL     1       7.638   1.754   3.051  1.00  0.00     0.004 C 
ENDBRANCH  18  19
ENDBRANCH  17  18
ENDBRANCH  16  17
ENDBRANCH  15  16
ENDBRANCH  14  15
ENDBRANCH  13  14
ENDBRANCH  12  13
ENDBRANCH   1  12
TORSDOF 16
ENDMDL
MODEL 4
REMARK VINA RESULT:    -2.491      4.274      7.182
REMARK INTER + INTRA:          -7.800
REMARK INTER:                  -6.015
REMARK INTRA:                  -1.785
REMARK UNBOUND:                -2.979
REMARK SMILES CCCCCCCCCCCCCCCCCC(=O)[O-]
REMARK SMILES IDX 10 1 11 2 12 3 13 4 14 5 15 6 16 7 17 8 18 9 19 10 20 11
REMARK SMILES IDX 9 12 8 13 7 14 6 15 5 16 4 17 3 18 2 19 1 20
REMARK H PARENT
REMARK Flexibility Score: inf
ROOT
ATOM      1  C   UNL     1       7.248  -1.084  -2.934  1.00  0.00     0.000 C 
ENDROOT
BRANCH   1   2
ATOM      2  C   UNL     1       7.733   0.251  -2.340  1.00  0.00     0.000 C 
BRANCH   2   3
ATOM      3  C   UNL     1       8.593   0.066  -1.076  1.00  0.00     0.000 C 
BRANCH   3   4
ATOM      4  C   UNL     1       8.776  -1.392  -0.618  1.00  0.00     0.000 C 
BRANCH   4   5
ATOM      5  C   UNL     1      10.203  -1.915  -0.836  1.00  0.00     0.000 C 
BRANCH   5   6
ATOM      6  C   UNL     1      10.228  -3.447  -0.882  1.00  0.00     0.000 C 
BRANCH   6   7
ATOM      7  C   UNL     1       9.099  -4.041  -0.032  1.00  0.00     0.006 C 
BRANCH   7   8
ATOM      8  C   UNL     1       9.554  -5.323   0.671  1.00  0.00     0.053 C 
BRANCH   8   9
ATOM      9  C   UNL     1       8.506  -5.796   1.628  1.00  0.00     0.041 C 
ATOM     10  O   UNL     1       8.280  -7.028   1.761  1.00  0.00    -0.550 OA
ATOM     11  O   UNL     1       7.821  -4.881   2.416  1.00  0.00    -0.550 OA
ENDBRANCH   8   9
ENDBRANCH   7   8
ENDBRANCH   6   7
ENDBRANCH   5   6
ENDBRANCH   4   5
ENDBRANCH   3   4
ENDBRANCH   2   3
ENDBRANCH   1   2
BRANCH   1  12
ATOM     12  C   UNL     1       8.049  -1.504  -4.176  1.00  0.00     0.000 C 
BRANCH  12  13
ATOM     13  C   UNL     1       8.506  -2.973  -4.124  1.00  0.00    -0.000 C 
BRANCH  13  14
ATOM     14  C   UNL     1       7.521  -3.861  -3.333  1.00  0.00    -0.000 C 
BRANCH  14  15
ATOM     15  C   UNL     1       6.388  -4.442  -4.197  1.00  0.00    -0.000 C 
BRANCH  15  16
ATOM     16  C   UNL     1       6.258  -5.968  -4.060  1.00  0.00    -0.000 C 
BRANCH  16  17
ATOM     17  C   UNL     1       4.885  -6.485  -4.519  1.00  0.00    -0.000 C 
BRANCH  17  18
ATOM     18  C   UNL     1       3.896  -6.663  -3.357  1.00  0.00    -0.000 C 
BRANCH  18  19
ATOM     19  C   UNL     1       2.489  -6.210  -3.763  1.00  0.00    -0.003 C 
ATOM     20  C   UNL     1       2.538  -4.930  -4.592  1.00  0.00     0.004 C 
ENDBRANCH  18  19
ENDBRANCH  17  18
ENDBRANCH  16  17
ENDBRANCH  15  16
ENDBRANCH  14  15
ENDBRANCH  13  14
ENDBRANCH  12  13
ENDBRANCH   1  12
TORSDOF 16
ENDMDL
MODEL 5
REMARK VINA RESULT:    -2.483      1.423      4.245
REMARK INTER + INTRA:          -7.785
REMARK INTER:                  -4.872
REMARK INTRA:                  -2.913
REMARK UNBOUND:                -2.979
REMARK SMILES CCCCCCCCCCCCCCCCCC(=O)[O-]
REMARK SMILES IDX 10 1 11 2 12 3 13 4 14 5 15 6 16 7 17 8 18 9 19 10 20 11
REMARK SMILES IDX 9 12 8 13 7 14 6 15 5 16 4 17 3 18 2 19 1 20
REMARK H PARENT
REMARK Flexibility Score: inf
ROOT
ATOM      1  C   UNL     1      11.592  -0.105  -0.748  1.00  0.00     0.000 C 
ENDROOT
BRANCH   1   2
ATOM      2  C   UNL     1      11.228  -1.589  -0.566  1.00  0.00     0.000 C 
BRANCH   2   3
ATOM      3  C   UNL     1      10.851  -1.940   0.885  1.00  0.00     0.000 C 
BRANCH   3   4
ATOM      4  C   UNL     1       9.354  -2.204   1.125  1.00  0.00     0.000 C 
BRANCH   4   5
ATOM      5  C   UNL     1       8.641  -1.032   1.815  1.00  0.00     0.000 C 
BRANCH   5   6
ATOM      6  C   UNL     1       9.652  -0.065   2.442  1.00  0.00     0.000 C 
BRANCH   6   7
ATOM      7  C   UNL     1       9.144   1.380   2.380  1.00  0.00     0.006 C 
BRANCH   7   8
ATOM      8  C   UNL     1       7.757   1.505   3.018  1.00  0.00     0.053 C 
BRANCH   8   9
ATOM      9  C   UNL     1       7.372   2.944   3.156  1.00  0.00     0.041 C 
ATOM     10  O   UNL     1       7.652   3.576   4.209  1.00  0.00    -0.550 OA
ATOM     11  O   UNL     1       6.756   3.603   2.100  1.00  0.00    -0.550 OA
ENDBRANCH   8   9
ENDBRANCH   7   8
ENDBRANCH   6   7
ENDBRANCH   5   6
ENDBRANCH   4   5
ENDBRANCH   3   4
ENDBRANCH   2   3
ENDBRANCH   1   2
BRANCH   1  12
ATOM     12  C   UNL     1      10.715   0.595  -1.797  1.00  0.00     0.000 C 
BRANCH  12  13
ATOM     13  C   UNL     1      10.015   1.852  -1.248  1.00  0.00    -0.000 C 
BRANCH  13  14
ATOM     14  C   UNL     1       8.476   1.732  -1.303  1.00  0.00    -0.000 C 
BRANCH  14  15
ATOM     15  C   UNL     1       7.977   0.283  -1.434  1.00  0.00    -0.000 C 
BRANCH  15  16
ATOM     16  C   UNL     1       7.168   0.046  -2.720  1.00  0.00    -0.000 C 
BRANCH  16  17
ATOM     17  C   UNL     1       7.348  -1.376  -3.275  1.00  0.00    -0.000 C 
BRANCH  17  18
ATOM     18  C   UNL     1       7.919  -2.354  -2.236  1.00  0.00    -0.000 C 
BRANCH  18  19
ATOM     19  C   UNL     1       8.613  -3.536  -2.922  1.00  0.00    -0.003 C 
ATOM     20  C   UNL     1       9.793  -3.069  -3.769  1.00  0.00     0.004 C 
ENDBRANCH  18  19
ENDBRANCH  17  18
ENDBRANCH  16  17
ENDBRANCH  15  16
ENDBRANCH  14  15
ENDBRANCH  13  14
ENDBRANCH  12  13
ENDBRANCH   1  12
TORSDOF 16
ENDMDL
MODEL 6
REMARK VINA RESULT:    -2.468      3.346      6.335
REMARK INTER + INTRA:          -7.755
REMARK INTER:                  -5.005
REMARK INTRA:                  -2.750
REMARK UNBOUND:                -2.979
REMARK SMILES CCCCCCCCCCCCCCCCCC(=O)[O-]
REMARK SMILES IDX 10 1 11 2 12 3 13 4 14 5 15 6 16 7 17 8 18 9 19 10 20 11
REMARK SMILES IDX 9 12 8 13 7 14 6 15 5 16 4 17 3 18 2 19 1 20
REMARK H PARENT
REMARK Flexibility Score: inf
ROOT
ATOM      1  C   UNL     1       7.195  -0.206  -2.858  1.00  0.00     0.000 C 
ENDROOT
BRANCH   1   2
ATOM      2  C   UNL     1       7.952   0.459  -1.695  1.00  0.00     0.000 C 
BRANCH   2   3
ATOM      3  C   UNL     1       8.984  -0.476  -1.039  1.00  0.00     0.000 C 
BRANCH   3   4
ATOM      4  C   UNL     1       8.914  -0.552   0.497  1.00  0.00     0.000 C 
BRANCH   4   5
ATOM      5  C   UNL     1       9.135  -1.973   1.038  1.00  0.00     0.000 C 
BRANCH   5   6
ATOM      6  C   UNL     1      10.313  -2.653   0.332  1.00  0.00     0.000 C 
BRANCH   6   7
ATOM      7  C   UNL     1      10.210  -4.180   0.436  1.00  0.00     0.006 C 
BRANCH   7   8
ATOM      8  C   UNL     1       8.749  -4.629   0.522  1.00  0.00     0.053 C 
BRANCH   8   9
ATOM      9  C   UNL     1       8.551  -5.547   1.686  1.00  0.00     0.041 C 
ATOM     10  O   UNL     1       8.075  -5.106   2.766  1.00  0.00    -0.550 OA
ATOM     11  O   UNL     1       8.836  -6.901   1.561  1.00  0.00    -0.550 OA
ENDBRANCH   8   9
ENDBRANCH   7   8
ENDBRANCH   6   7
ENDBRANCH   5   6
ENDBRANCH   4   5
ENDBRANCH   3   4
ENDBRANCH   2   3
ENDBRANCH   1   2
BRANCH   1  12
ATOM     12  C   UNL     1       7.376  -1.732  -2.886  1.00  0.00     0.000 C 
BRANCH  12  13
ATOM     13  C   UNL     1       6.764  -2.384  -4.138  1.00  0.00    -0.000 C 
BRANCH  13  14
ATOM     14  C   UNL     1       7.106  -3.886  -4.239  1.00  0.00    -0.000 C 
BRANCH  14  15
ATOM     15  C   UNL     1       7.722  -4.464  -2.953  1.00  0.00    -0.000 C 
BRANCH  15  16
ATOM     16  C   UNL     1       9.059  -5.179  -3.204  1.00  0.00    -0.000 C 
BRANCH  16  17
ATOM     17  C   UNL     1       9.922  -4.464  -4.257  1.00  0.00    -0.000 C 
BRANCH  17  18
ATOM     18  C   UNL     1      11.200  -3.853  -3.664  1.00  0.00    -0.000 C 
BRANCH  18  19
ATOM     19  C   UNL     1      10.985  -2.378  -3.305  1.00  0.00    -0.003 C 
ATOM     20  C   UNL     1      10.625  -1.555  -4.538  1.00  0.00     0.004 C 
ENDBRANCH  18  19
ENDBRANCH  17  18
ENDBRANCH  16  17
ENDBRANCH  15  16
ENDBRANCH  14  15
ENDBRANCH  13  14
ENDBRANCH  12  13
ENDBRANCH   1  12
TORSDOF 16
ENDMDL
MODEL 7
REMARK VINA RESULT:    -2.467      2.909      5.281
REMARK INTER + INTRA:          -7.755
REMARK INTER:                  -4.837
REMARK INTRA:                  -2.918
REMARK UNBOUND:                -2.979
REMARK SMILES CCCCCCCCCCCCCCCCCC(=O)[O-]
REMARK SMILES IDX 10 1 11 2 12 3 13 4 14 5 15 6 16 7 17 8 18 9 19 10 20 11
REMARK SMILES IDX 9 12 8 13 7 14 6 15 5 16 4 17 3 18 2 19 1 20
REMARK H PARENT
REMARK Flexibility Score: inf
ROOT
ATOM      1  C   UNL     1       7.043   0.110  -4.254  1.00  0.00     0.000 C 
ENDROOT
BRANCH   1   2
ATOM      2  C   UNL     1       7.423  -1.381  -4.237  1.00  0.00     0.000 C 
BRANCH   2   3
ATOM      3  C   UNL     1       7.404  -1.988  -2.822  1.00  0.00     0.000 C 
BRANCH   3   4
ATOM      4  C   UNL     1       8.090  -3.360  -2.691  1.00  0.00     0.000 C 
BRANCH   4   5
ATOM      5  C   UNL     1       8.801  -3.548  -1.342  1.00  0.00     0.000 C 
BRANCH   5   6
ATOM      6  C   UNL     1       8.641  -2.306  -0.458  1.00  0.00     0.000 C 
BRANCH   6   7
ATOM      7  C   UNL     1       9.669  -2.304   0.680  1.00  0.00     0.006 C 
BRANCH   7   8
ATOM      8  C   UNL     1       8.991  -2.520   2.035  1.00  0.00     0.053 C 
BRANCH   8   9
ATOM      9  C   UNL     1       8.898  -3.980   2.348  1.00  0.00     0.041 C 
ATOM     10  O   UNL     1       9.919  -4.614   2.723  1.00  0.00    -0.550 OA
ATOM     11  O   UNL     1       7.671  -4.628   2.281  1.00  0.00    -0.550 OA
ENDBRANCH   8   9
ENDBRANCH   7   8
ENDBRANCH   6   7
ENDBRANCH   5   6
ENDBRANCH   4   5
ENDBRANCH   3   4
ENDBRANCH   2   3
ENDBRANCH   1   2
BRANCH   1  12
ATOM     12  C   UNL     1       6.800   0.674  -2.845  1.00  0.00     0.000 C 
BRANCH  12  13
ATOM     13  C   UNL     1       7.138   2.172  -2.735  1.00  0.00    -0.000 C 
BRANCH  13  14
ATOM     14  C   UNL     1       7.781   2.525  -1.376  1.00  0.00    -0.000 C 
BRANCH  14  15
ATOM     15  C   UNL     1       8.529   1.348  -0.726  1.00  0.00    -0.000 C 
BRANCH  15  16
ATOM     16  C   UNL     1      10.056   1.473  -0.847  1.00  0.00    -0.000 C 
BRANCH  16  17
ATOM     17  C   UNL     1      10.666   0.386  -1.747  1.00  0.00    -0.000 C 
BRANCH  17  18
ATOM     18  C   UNL     1      10.483   0.680  -3.244  1.00  0.00    -0.000 C 
BRANCH  18  19
ATOM     19  C   UNL     1      11.314  -0.287  -4.095  1.00  0.00    -0.003 C 
ATOM     20  C   UNL     1      11.194  -1.719  -3.584  1.00  0.00     0.004 C 
ENDBRANCH  18  19
ENDBRANCH  17  18
ENDBRANCH  16  17
ENDBRANCH  15  16
ENDBRANCH  14  15
ENDBRANCH  13  14
ENDBRANCH  12  13
ENDBRANCH   1  12
TORSDOF 16
ENDMDL
MODEL 8
REMARK VINA RESULT:    -2.455      1.504      2.161
REMARK INTER + INTRA:          -7.730
REMARK INTER:                  -5.885
REMARK INTRA:                  -1.845
REMARK UNBOUND:                -2.979
REMARK SMILES CCCCCCCCCCCCCCCCCC(=O)[O-]
REMARK SMILES IDX 10 1 11 2 12 3 13 4 14 5 15 6 16 7 17 8 18 9 19 10 20 11
REMARK SMILES IDX 9 12 8 13 7 14 6 15 5 16 4 17 3 18 2 19 1 20
REMARK H PARENT
REMARK Flexibility Score: inf
ROOT
ATOM      1  C   UNL     1       8.046  -2.028  -4.681  1.00  0.00     0.000 C 
ENDROOT
BRANCH   1   2
ATOM      2  C   UNL     1       6.649  -1.725  -4.110  1.00  0.00     0.000 C 
BRANCH   2   3
ATOM      3  C   UNL     1       6.469  -0.246  -3.720  1.00  0.00     0.000 C 
BRANCH   3   4
ATOM      4  C   UNL     1       7.735   0.445  -3.180  1.00  0.00     0.000 C 
BRANCH   4   5
ATOM      5  C   UNL     1       7.449   1.376  -1.992  1.00  0.00     0.000 C 
BRANCH   5   6
ATOM      6  C   UNL     1       8.727   1.657  -1.194  1.00  0.00     0.000 C 
BRANCH   6   7
ATOM      7  C   UNL     1       8.461   2.660  -0.065  1.00  0.00     0.006 C 
BRANCH   7   8
ATOM      8  C   UNL     1       8.371   1.954   1.290  1.00  0.00     0.053 C 
BRANCH   8   9
ATOM      9  C   UNL     1       7.583   2.779   2.259  1.00  0.00     0.041 C 
ATOM     10  O   UNL     1       7.727   2.609   3.498  1.00  0.00    -0.550 OA
ATOM     11  O   UNL     1       6.734   3.774   1.794  1.00  0.00    -0.550 OA
ENDBRANCH   8   9
ENDBRANCH   7   8
ENDBRANCH   6   7
ENDBRANCH   5   6
ENDBRANCH   4   5
ENDBRANCH   3   4
ENDBRANCH   2   3
ENDBRANCH   1   2
BRANCH   1  12
ATOM     12  C   UNL     1       8.695  -3.260  -4.033  1.00  0.00     0.000 C 
BRANCH  12  13
ATOM     13  C   UNL     1       7.966  -3.718  -2.756  1.00  0.00    -0.000 C 
BRANCH  13  14
ATOM     14  C   UNL     1       8.813  -3.485  -1.487  1.00  0.00    -0.000 C 
BRANCH  14  15
ATOM     15  C   UNL     1       8.682  -2.063  -0.913  1.00  0.00    -0.000 C 
BRANCH  15  16
ATOM     16  C   UNL     1       9.587  -1.828   0.306  1.00  0.00    -0.000 C 
BRANCH  16  17
ATOM     17  C   UNL     1       8.793  -1.732   1.619  1.00  0.00    -0.000 C 
BRANCH  17  18
ATOM     18  C   UNL     1       9.075  -2.903   2.573  1.00  0.00    -0.000 C 
BRANCH  18  19
ATOM     19  C   UNL     1       8.366  -4.176   2.098  1.00  0.00    -0.003 C 
ATOM     20  C   UNL     1       8.564  -5.321   3.087  1.00  0.00     0.004 C 
ENDBRANCH  18  19
ENDBRANCH  17  18
ENDBRANCH  16  17
ENDBRANCH  15  16
ENDBRANCH  14  15
ENDBRANCH  13  14
ENDBRANCH  12  13
ENDBRANCH   1  12
TORSDOF 16
ENDMDL
MODEL 9
REMARK VINA RESULT:    -2.453      1.712      3.142
REMARK INTER + INTRA:          -7.726
REMARK INTER:                  -6.026
REMARK INTRA:                  -1.699
REMARK UNBOUND:                -2.979
REMARK SMILES CCCCCCCCCCCCCCCCCC(=O)[O-]
REMARK SMILES IDX 10 1 11 2 12 3 13 4 14 5 15 6 16 7 17 8 18 9 19 10 20 11
REMARK SMILES IDX 9 12 8 13 7 14 6 15 5 16 4 17 3 18 2 19 1 20
REMARK H PARENT
REMARK Flexibility Score: inf
ROOT
ATOM      1  C   UNL     1       8.697  -3.503  -1.860  1.00  0.00     0.000 C 
ENDROOT
BRANCH   1   2
ATOM      2  C   UNL     1       8.345  -2.014  -1.698  1.00  0.00     0.000 C 
BRANCH   2   3
ATOM      3  C   UNL     1       7.417  -1.493  -2.812  1.00  0.00     0.000 C 
BRANCH   3   4
ATOM      4  C   UNL     1       7.109   0.014  -2.754  1.00  0.00     0.000 C 
BRANCH   4   5
ATOM      5  C   UNL     1       7.896   0.745  -1.655  1.00  0.00     0.000 C 
BRANCH   5   6
ATOM      6  C   UNL     1       7.667   2.259  -1.730  1.00  0.00     0.000 C 
BRANCH   6   7
ATOM      7  C   UNL     1       8.519   2.997  -0.690  1.00  0.00     0.006 C 
BRANCH   7   8
ATOM      8  C   UNL     1       8.201   2.511   0.727  1.00  0.00     0.053 C 
BRANCH   8   9
ATOM      9  C   UNL     1       7.328   3.498   1.435  1.00  0.00     0.041 C 
ATOM     10  O   UNL     1       6.868   4.495   0.818  1.00  0.00    -0.550 OA
ATOM     11  O   UNL     1       6.973   3.286   2.761  1.00  0.00    -0.550 OA
ENDBRANCH   8   9
ENDBRANCH   7   8
ENDBRANCH   6   7
ENDBRANCH   5   6
ENDBRANCH   4   5
ENDBRANCH   3   4
ENDBRANCH   2   3
ENDBRANCH   1   2
BRANCH   1  12
ATOM     12  C   UNL     1      10.061  -3.858  -1.249  1.00  0.00     0.000 C 
BRANCH  12  13
ATOM     13  C   UNL     1      10.139  -5.319  -0.769  1.00  0.00    -0.000 C 
BRANCH  13  14
ATOM     14  C   UNL     1       8.792  -5.818  -0.204  1.00  0.00    -0.000 C 
BRANCH  14  15
ATOM     15  C   UNL     1       8.789  -5.979   1.326  1.00  0.00    -0.000 C 
BRANCH  15  16
ATOM     16  C   UNL     1       8.267  -4.730   2.055  1.00  0.00    -0.000 C 
BRANCH  16  17
ATOM     17  C   UNL     1       9.120  -4.363   3.280  1.00  0.00    -0.000 C 
BRANCH  17  18
ATOM     18  C   UNL     1       9.783  -2.983   3.152  1.00  0.00    -0.000 C 
BRANCH  18  19
ATOM     19  C   UNL     1       9.364  -2.294   1.849  1.00  0.00    -0.003 C 
ATOM     20  C   UNL     1       8.792  -0.905   2.116  1.00  0.00     0.004 C 
ENDBRANCH  18  19
ENDBRANCH  17  18
ENDBRANCH  16  17
ENDBRANCH  15  16
ENDBRANCH  14  15
ENDBRANCH  13  14
ENDBRANCH  12  13
ENDBRANCH   1  12
TORSDOF 16
ENDMDL
