MODEL 1
REMARK VINA RESULT:    -6.207      0.000      0.000
REMARK INTER + INTRA:         -20.495
REMARK INTER:                 -15.642
REMARK INTRA:                  -4.853
REMARK UNBOUND:                -4.853
REMARK SMILES CCCCCCCCCCCCCCCCCCCCCCCCCCCC(=O)[O-]
REMARK SMILES IDX 15 1 16 2 17 3 18 4 19 5 20 6 21 7 22 8 23 9 24 10 25 11
REMARK SMILES IDX 26 12 27 13 28 14 29 15 30 16 14 17 13 18 12 19 11 20 10 21
REMARK SMILES IDX 9 22 8 23 7 24 6 25 5 26 4 27 3 28 2 29 1 30
REMARK H PARENT
REMARK Flexibility Score: inf
ROOT
ATOM      1  C   UNL     1      11.350  73.053  -1.187  1.00  0.00     0.000 C 
ENDROOT
BRANCH   1   2
ATOM      2  C   UNL     1      11.335  71.526  -1.392  1.00  0.00     0.000 C 
BRANCH   2   3
ATOM      3  C   UNL     1      10.089  71.036  -2.144  1.00  0.00     0.000 C 
BRANCH   3   4
ATOM      4  C   UNL     1       9.721  71.995  -3.284  1.00  0.00     0.000 C 
BRANCH   4   5
ATOM      5  C   UNL     1       9.480  71.226  -4.591  1.00  0.00     0.000 C 
BRANCH   5   6
ATOM      6  C   UNL     1       9.763  72.073  -5.843  1.00  0.00     0.000 C 
BRANCH   6   7
ATOM      7  C   UNL     1       8.671  73.104  -6.207  1.00  0.00     0.000 C 
BRANCH   7   8
ATOM      8  C   UNL     1       9.092  74.585  -6.111  1.00  0.00     0.000 C 
BRANCH   8   9
ATOM      9  C   UNL     1       9.054  75.180  -4.686  1.00  0.00     0.000 C 
BRANCH   9  10
ATOM     10  C   UNL     1       7.820  76.056  -4.401  1.00  0.00     0.000 C 
BRANCH  10  11
ATOM     11  C   UNL     1       6.755  75.371  -3.521  1.00  0.00     0.000 C 
BRANCH  11  12
ATOM     12  C   UNL     1       7.352  74.809  -2.218  1.00  0.00     0.006 C 
BRANCH  12  13
ATOM     13  C   UNL     1       6.269  74.335  -1.240  1.00  0.00     0.053 C 
BRANCH  13  14
ATOM     14  C   UNL     1       5.896  75.408  -0.264  1.00  0.00     0.041 C 
ATOM     15  O   UNL     1       4.732  75.454   0.215  1.00  0.00    -0.550 OA
ATOM     16  O   UNL     1       6.842  76.343   0.138  1.00  0.00    -0.550 OA
ENDBRANCH  13  14
ENDBRANCH  12  13
ENDBRANCH  11  12
ENDBRANCH  10  11
ENDBRANCH   9  10
ENDBRANCH   8   9
ENDBRANCH   7   8
ENDBRANCH   6   7
ENDBRANCH   5   6
ENDBRANCH   4   5
ENDBRANCH   3   4
ENDBRANCH   2   3
ENDBRANCH   1   2
BRANCH   1  17
ATOM     17  C   UNL     1      12.732  73.718  -1.323  1.00  0.00     0.000 C 
BRANCH  17  18
ATOM     18  C   UNL     1      13.761  72.816  -2.025  1.00  0.00     0.000 C 
BRANCH  18  19
ATOM     19  C   UNL     1      14.130  73.318  -3.431  1.00  0.00     0.000 C 
BRANCH  19  20
ATOM     20  C   UNL     1      12.898  73.730  -4.257  1.00  0.00     0.000 C 
BRANCH  20  21
ATOM     21  C   UNL     1      12.927  75.211  -4.678  1.00  0.00     0.000 C 
BRANCH  21  22
ATOM     22  C   UNL     1      13.824  76.122  -3.821  1.00  0.00    -0.000 C 
BRANCH  22  23
ATOM     23  C   UNL     1      13.067  77.325  -3.233  1.00  0.00    -0.000 C 
BRANCH  23  24
ATOM     24  C   UNL     1      13.164  77.403  -1.698  1.00  0.00    -0.000 C 
BRANCH  24  25
ATOM     25  C   UNL     1      11.844  77.154  -0.938  1.00  0.00    -0.000 C 
BRANCH  25  26
ATOM     26  C   UNL     1      10.620  76.878  -1.828  1.00  0.00    -0.000 C 
BRANCH  26  27
ATOM     27  C   UNL     1       9.472  77.869  -1.588  1.00  0.00    -0.000 C 
BRANCH  27  28
ATOM     28  C   UNL     1       9.831  78.862  -0.472  1.00  0.00    -0.000 C 
BRANCH  28  29
ATOM     29  C   UNL     1       9.951  80.306  -0.981  1.00  0.00    -0.003 C 
ATOM     30  C   UNL     1      11.370  80.862  -0.853  1.00  0.00     0.004 C 
ENDBRANCH  28  29
ENDBRANCH  27  28
ENDBRANCH  26  27
ENDBRANCH  25  26
ENDBRANCH  24  25
ENDBRANCH  23  24
ENDBRANCH  22  23
ENDBRANCH  21  22
ENDBRANCH  20  21
ENDBRANCH  19  20
ENDBRANCH  18  19
ENDBRANCH  17  18
ENDBRANCH   1  17
TORSDOF 26
ENDMDL
MODEL 2
REMARK VINA RESULT:    -6.010      1.146      1.697
REMARK INTER + INTRA:         -19.998
REMARK INTER:                 -15.025
REMARK INTRA:                  -4.972
REMARK UNBOUND:                -4.853
REMARK SMILES CCCCCCCCCCCCCCCCCCCCCCCCCCCC(=O)[O-]
REMARK SMILES IDX 15 1 16 2 17 3 18 4 19 5 20 6 21 7 22 8 23 9 24 10 25 11
REMARK SMILES IDX 26 12 27 13 28 14 29 15 30 16 14 17 13 18 12 19 11 20 10 21
REMARK SMILES IDX 9 22 8 23 7 24 6 25 5 26 4 27 3 28 2 29 1 30
REMARK H PARENT
REMARK Flexibility Score: inf
ROOT
ATOM      1  C   UNL     1      12.096  72.951  -1.693  1.00  0.00     0.000 C 
ENDROOT
BRANCH   1   2
ATOM      2  C   UNL     1      11.330  71.614  -1.700  1.00  0.00     0.000 C 
BRANCH   2   3
ATOM      3  C   UNL     1       9.874  71.762  -2.164  1.00  0.00     0.000 C 
BRANCH   3   4
ATOM      4  C   UNL     1       9.638  71.013  -3.483  1.00  0.00     0.000 C 
BRANCH   4   5
ATOM      5  C   UNL     1      10.202  71.805  -4.672  1.00  0.00     0.000 C 
BRANCH   5   6
ATOM      6  C   UNL     1       9.227  71.875  -5.860  1.00  0.00     0.000 C 
BRANCH   6   7
ATOM      7  C   UNL     1       8.766  73.295  -6.255  1.00  0.00     0.000 C 
BRANCH   7   8
ATOM      8  C   UNL     1       9.264  74.437  -5.343  1.00  0.00     0.000 C 
BRANCH   8   9
ATOM      9  C   UNL     1       8.297  75.633  -5.215  1.00  0.00     0.000 C 
BRANCH   9  10
ATOM     10  C   UNL     1       7.718  75.829  -3.801  1.00  0.00     0.000 C 
BRANCH  10  11
ATOM     11  C   UNL     1       7.944  74.629  -2.860  1.00  0.00     0.000 C 
BRANCH  11  12
ATOM     12  C   UNL     1       8.460  75.065  -1.476  1.00  0.00     0.006 C 
BRANCH  12  13
ATOM     13  C   UNL     1       7.985  76.474  -1.096  1.00  0.00     0.053 C 
BRANCH  13  14
ATOM     14  C   UNL     1       6.869  76.433  -0.098  1.00  0.00     0.041 C 
ATOM     15  O   UNL     1       6.247  75.359   0.114  1.00  0.00    -0.550 OA
ATOM     16  O   UNL     1       6.533  77.576   0.617  1.00  0.00    -0.550 OA
ENDBRANCH  13  14
ENDBRANCH  12  13
ENDBRANCH  11  12
ENDBRANCH  10  11
ENDBRANCH   9  10
ENDBRANCH   8   9
ENDBRANCH   7   8
ENDBRANCH   6   7
ENDBRANCH   5   6
ENDBRANCH   4   5
ENDBRANCH   3   4
ENDBRANCH   2   3
ENDBRANCH   1   2
BRANCH   1  17
ATOM     17  C   UNL     1      13.630  72.826  -1.733  1.00  0.00     0.000 C 
BRANCH  17  18
ATOM     18  C   UNL     1      14.238  73.360  -3.042  1.00  0.00     0.000 C 
BRANCH  18  19
ATOM     19  C   UNL     1      13.225  73.387  -4.199  1.00  0.00     0.000 C 
BRANCH  19  20
ATOM     20  C   UNL     1      12.978  74.806  -4.740  1.00  0.00     0.000 C 
BRANCH  20  21
ATOM     21  C   UNL     1      14.031  75.823  -4.259  1.00  0.00     0.000 C 
BRANCH  21  22
ATOM     22  C   UNL     1      13.491  76.958  -3.371  1.00  0.00    -0.000 C 
BRANCH  22  23
ATOM     23  C   UNL     1      12.046  76.716  -2.903  1.00  0.00    -0.000 C 
BRANCH  23  24
ATOM     24  C   UNL     1      11.934  76.515  -1.380  1.00  0.00    -0.000 C 
BRANCH  24  25
ATOM     25  C   UNL     1      13.275  76.449  -0.621  1.00  0.00    -0.000 C 
BRANCH  25  26
ATOM     26  C   UNL     1      13.666  77.734   0.129  1.00  0.00    -0.000 C 
BRANCH  26  27
ATOM     27  C   UNL     1      12.500  78.725   0.263  1.00  0.00    -0.000 C 
BRANCH  27  28
ATOM     28  C   UNL     1      12.907  80.118  -0.240  1.00  0.00    -0.000 C 
BRANCH  28  29
ATOM     29  C   UNL     1      12.489  80.365  -1.698  1.00  0.00    -0.003 C 
ATOM     30  C   UNL     1      10.992  80.160  -1.926  1.00  0.00     0.004 C 
ENDBRANCH  28  29
ENDBRANCH  27  28
ENDBRANCH  26  27
ENDBRANCH  25  26
ENDBRANCH  24  25
ENDBRANCH  23  24
ENDBRANCH  22  23
ENDBRANCH  21  22
ENDBRANCH  20  21
ENDBRANCH  19  20
ENDBRANCH  18  19
ENDBRANCH  17  18
ENDBRANCH   1  17
TORSDOF 26
ENDMDL
MODEL 3
REMARK VINA RESULT:    -5.999      1.877      5.158
REMARK INTER + INTRA:         -19.972
REMARK INTER:                 -14.678
REMARK INTRA:                  -5.293
REMARK UNBOUND:                -4.853
REMARK SMILES CCCCCCCCCCCCCCCCCCCCCCCCCCCC(=O)[O-]
REMARK SMILES IDX 15 1 16 2 17 3 18 4 19 5 20 6 21 7 22 8 23 9 24 10 25 11
REMARK SMILES IDX 26 12 27 13 28 14 29 15 30 16 14 17 13 18 12 19 11 20 10 21
REMARK SMILES IDX 9 22 8 23 7 24 6 25 5 26 4 27 3 28 2 29 1 30
REMARK H PARENT
REMARK Flexibility Score: inf
ROOT
ATOM      1  C   UNL     1      10.197  73.419  -2.134  1.00  0.00     0.000 C 
ENDROOT
BRANCH   1   2
ATOM      2  C   UNL     1      11.045  73.591  -0.859  1.00  0.00     0.000 C 
BRANCH   2   3
ATOM      3  C   UNL     1      12.540  73.774  -1.156  1.00  0.00     0.000 C 
BRANCH   3   4
ATOM      4  C   UNL     1      13.052  72.677  -2.100  1.00  0.00     0.000 C 
BRANCH   4   5
ATOM      5  C   UNL     1      13.923  73.275  -3.215  1.00  0.00     0.000 C 
BRANCH   5   6
ATOM      6  C   UNL     1      13.102  73.743  -4.428  1.00  0.00     0.000 C 
BRANCH   6   7
ATOM      7  C   UNL     1      12.878  75.268  -4.528  1.00  0.00     0.000 C 
BRANCH   7   8
ATOM      8  C   UNL     1      13.905  76.145  -3.780  1.00  0.00     0.000 C 
BRANCH   8   9
ATOM      9  C   UNL     1      13.329  77.438  -3.164  1.00  0.00     0.000 C 
BRANCH   9  10
ATOM     10  C   UNL     1      12.055  77.225  -2.325  1.00  0.00     0.000 C 
BRANCH  10  11
ATOM     11  C   UNL     1      12.291  77.273  -0.803  1.00  0.00     0.000 C 
BRANCH  11  12
ATOM     12  C   UNL     1      11.385  78.304  -0.106  1.00  0.00     0.006 C 
BRANCH  12  13
ATOM     13  C   UNL     1      11.611  79.727  -0.634  1.00  0.00     0.053 C 
BRANCH  13  14
ATOM     14  C   UNL     1      10.331  80.502  -0.704  1.00  0.00     0.041 C 
ATOM     15  O   UNL     1       9.645  80.690   0.335  1.00  0.00    -0.550 OA
ATOM     16  O   UNL     1       9.909  81.039  -1.914  1.00  0.00    -0.550 OA
ENDBRANCH  13  14
ENDBRANCH  12  13
ENDBRANCH  11  12
ENDBRANCH  10  11
ENDBRANCH   9  10
ENDBRANCH   8   9
ENDBRANCH   7   8
ENDBRANCH   6   7
ENDBRANCH   5   6
ENDBRANCH   4   5
ENDBRANCH   3   4
ENDBRANCH   2   3
ENDBRANCH   1   2
BRANCH   1  17
ATOM     17  C   UNL     1       9.396  72.107  -2.214  1.00  0.00     0.000 C 
BRANCH  17  18
ATOM     18  C   UNL     1       9.827  71.216  -3.393  1.00  0.00     0.000 C 
BRANCH  18  19
ATOM     19  C   UNL     1      10.244  72.030  -4.630  1.00  0.00     0.000 C 
BRANCH  19  20
ATOM     20  C   UNL     1       9.266  71.867  -5.806  1.00  0.00     0.000 C 
BRANCH  20  21
ATOM     21  C   UNL     1       8.640  73.201  -6.255  1.00  0.00     0.000 C 
BRANCH  21  22
ATOM     22  C   UNL     1       8.847  74.382  -5.290  1.00  0.00    -0.000 C 
BRANCH  22  23
ATOM     23  C   UNL     1       7.599  74.690  -4.444  1.00  0.00    -0.000 C 
BRANCH  23  24
ATOM     24  C   UNL     1       7.552  76.149  -3.953  1.00  0.00    -0.000 C 
BRANCH  24  25
ATOM     25  C   UNL     1       8.597  76.521  -2.881  1.00  0.00    -0.000 C 
BRANCH  25  26
ATOM     26  C   UNL     1       8.296  77.808  -2.094  1.00  0.00    -0.000 C 
BRANCH  26  27
ATOM     27  C   UNL     1       7.718  77.534  -0.698  1.00  0.00    -0.000 C 
BRANCH  27  28
ATOM     28  C   UNL     1       7.693  76.026  -0.404  1.00  0.00    -0.000 C 
BRANCH  28  29
ATOM     29  C   UNL     1       6.269  75.489  -0.196  1.00  0.00    -0.003 C 
ATOM     30  C   UNL     1       5.959  74.278  -1.078  1.00  0.00     0.004 C 
ENDBRANCH  28  29
ENDBRANCH  27  28
ENDBRANCH  26  27
ENDBRANCH  25  26
ENDBRANCH  24  25
ENDBRANCH  23  24
ENDBRANCH  22  23
ENDBRANCH  21  22
ENDBRANCH  20  21
ENDBRANCH  19  20
ENDBRANCH  18  19
ENDBRANCH  17  18
ENDBRANCH   1  17
TORSDOF 26
ENDMDL
MODEL 4
REMARK VINA RESULT:    -5.958      1.145      1.932
REMARK INTER + INTRA:         -19.868
REMARK INTER:                 -14.629
REMARK INTRA:                  -5.239
REMARK UNBOUND:                -4.853
REMARK SMILES CCCCCCCCCCCCCCCCCCCCCCCCCCCC(=O)[O-]
REMARK SMILES IDX 15 1 16 2 17 3 18 4 19 5 20 6 21 7 22 8 23 9 24 10 25 11
REMARK SMILES IDX 26 12 27 13 28 14 29 15 30 16 14 17 13 18 12 19 11 20 10 21
REMARK SMILES IDX 9 22 8 23 7 24 6 25 5 26 4 27 3 28 2 29 1 30
REMARK H PARENT
REMARK Flexibility Score: inf
ROOT
ATOM      1  C   UNL     1      13.020  72.836  -1.824  1.00  0.00     0.000 C 
ENDROOT
BRANCH   1   2
ATOM      2  C   UNL     1      11.753  71.996  -2.076  1.00  0.00     0.000 C 
BRANCH   2   3
ATOM      3  C   UNL     1      10.458  72.762  -1.771  1.00  0.00     0.000 C 
BRANCH   3   4
ATOM      4  C   UNL     1       9.399  72.504  -2.852  1.00  0.00     0.000 C 
BRANCH   4   5
ATOM      5  C   UNL     1       9.782  71.295  -3.717  1.00  0.00     0.000 C 
BRANCH   5   6
ATOM      6  C   UNL     1       9.871  71.635  -5.215  1.00  0.00     0.000 C 
BRANCH   6   7
ATOM      7  C   UNL     1       8.855  72.685  -5.717  1.00  0.00     0.000 C 
BRANCH   7   8
ATOM      8  C   UNL     1       9.454  74.041  -6.147  1.00  0.00     0.000 C 
BRANCH   8   9
ATOM      9  C   UNL     1       8.720  75.280  -5.591  1.00  0.00     0.000 C 
BRANCH   9  10
ATOM     10  C   UNL     1       7.825  74.990  -4.372  1.00  0.00     0.000 C 
BRANCH  10  11
ATOM     11  C   UNL     1       7.414  76.247  -3.581  1.00  0.00     0.000 C 
BRANCH  11  12
ATOM     12  C   UNL     1       8.192  76.382  -2.259  1.00  0.00     0.006 C 
BRANCH  12  13
ATOM     13  C   UNL     1       7.717  75.378  -1.200  1.00  0.00     0.053 C 
BRANCH  13  14
ATOM     14  C   UNL     1       6.691  75.978  -0.288  1.00  0.00     0.041 C 
ATOM     15  O   UNL     1       5.655  75.330   0.015  1.00  0.00    -0.550 OA
ATOM     16  O   UNL     1       6.892  77.244   0.248  1.00  0.00    -0.550 OA
ENDBRANCH  13  14
ENDBRANCH  12  13
ENDBRANCH  11  12
ENDBRANCH  10  11
ENDBRANCH   9  10
ENDBRANCH   8   9
ENDBRANCH   7   8
ENDBRANCH   6   7
ENDBRANCH   5   6
ENDBRANCH   4   5
ENDBRANCH   3   4
ENDBRANCH   2   3
ENDBRANCH   1   2
BRANCH   1  17
ATOM     17  C   UNL     1      13.817  73.212  -3.087  1.00  0.00     0.000 C 
BRANCH  17  18
ATOM     18  C   UNL     1      12.927  73.345  -4.335  1.00  0.00     0.000 C 
BRANCH  18  19
ATOM     19  C   UNL     1      12.861  74.787  -4.866  1.00  0.00     0.000 C 
BRANCH  19  20
ATOM     20  C   UNL     1      13.809  75.740  -4.117  1.00  0.00     0.000 C 
BRANCH  20  21
ATOM     21  C   UNL     1      13.065  76.868  -3.377  1.00  0.00     0.000 C 
BRANCH  21  22
ATOM     22  C   UNL     1      11.726  76.462  -2.736  1.00  0.00    -0.000 C 
BRANCH  22  23
ATOM     23  C   UNL     1      11.846  76.172  -1.231  1.00  0.00    -0.000 C 
BRANCH  23  24
ATOM     24  C   UNL     1      13.241  76.498  -0.666  1.00  0.00    -0.000 C 
BRANCH  24  25
ATOM     25  C   UNL     1      13.254  77.399   0.586  1.00  0.00    -0.000 C 
BRANCH  25  26
ATOM     26  C   UNL     1      12.533  78.749   0.427  1.00  0.00    -0.000 C 
BRANCH  26  27
ATOM     27  C   UNL     1      13.197  79.662  -0.615  1.00  0.00    -0.000 C 
BRANCH  27  28
ATOM     28  C   UNL     1      12.186  80.090  -1.689  1.00  0.00    -0.000 C 
BRANCH  28  29
ATOM     29  C   UNL     1      10.833  80.508  -1.095  1.00  0.00    -0.003 C 
ATOM     30  C   UNL     1       9.653  79.780  -1.740  1.00  0.00     0.004 C 
ENDBRANCH  28  29
ENDBRANCH  27  28
ENDBRANCH  26  27
ENDBRANCH  25  26
ENDBRANCH  24  25
ENDBRANCH  23  24
ENDBRANCH  22  23
ENDBRANCH  21  22
ENDBRANCH  20  21
ENDBRANCH  19  20
ENDBRANCH  18  19
ENDBRANCH  17  18
ENDBRANCH   1  17
TORSDOF 26
ENDMDL
MODEL 5
REMARK VINA RESULT:    -5.952      2.151      5.330
REMARK INTER + INTRA:         -19.851
REMARK INTER:                 -14.904
REMARK INTRA:                  -4.947
REMARK UNBOUND:                -4.853
REMARK SMILES CCCCCCCCCCCCCCCCCCCCCCCCCCCC(=O)[O-]
REMARK SMILES IDX 15 1 16 2 17 3 18 4 19 5 20 6 21 7 22 8 23 9 24 10 25 11
REMARK SMILES IDX 26 12 27 13 28 14 29 15 30 16 14 17 13 18 12 19 11 20 10 21
REMARK SMILES IDX 9 22 8 23 7 24 6 25 5 26 4 27 3 28 2 29 1 30
REMARK H PARENT
REMARK Flexibility Score: inf
ROOT
ATOM      1  C   UNL     1      11.258  72.502  -2.368  1.00  0.00     0.000 C 
ENDROOT
BRANCH   1   2
ATOM      2  C   UNL     1      12.482  72.426  -1.435  1.00  0.00     0.000 C 
BRANCH   2   3
ATOM      3  C   UNL     1      13.768  72.947  -2.091  1.00  0.00     0.000 C 
BRANCH   3   4
ATOM      4  C   UNL     1      13.541  73.259  -3.576  1.00  0.00     0.000 C 
BRANCH   4   5
ATOM      5  C   UNL     1      14.185  74.598  -3.961  1.00  0.00     0.000 C 
BRANCH   5   6
ATOM      6  C   UNL     1      13.150  75.696  -4.261  1.00  0.00     0.000 C 
BRANCH   6   7
ATOM      7  C   UNL     1      13.226  76.944  -3.354  1.00  0.00     0.000 C 
BRANCH   7   8
ATOM      8  C   UNL     1      11.995  77.192  -2.455  1.00  0.00     0.000 C 
BRANCH   8   9
ATOM      9  C   UNL     1      11.693  76.066  -1.443  1.00  0.00     0.000 C 
BRANCH   9  10
ATOM     10  C   UNL     1      12.654  76.024  -0.240  1.00  0.00     0.000 C 
BRANCH  10  11
ATOM     11  C   UNL     1      13.378  77.357   0.031  1.00  0.00     0.000 C 
BRANCH  11  12
ATOM     12  C   UNL     1      13.029  77.938   1.413  1.00  0.00     0.006 C 
BRANCH  12  13
ATOM     13  C   UNL     1      12.990  79.471   1.408  1.00  0.00     0.053 C 
BRANCH  13  14
ATOM     14  C   UNL     1      12.078  79.999   0.343  1.00  0.00     0.041 C 
ATOM     15  O   UNL     1      10.830  79.870   0.455  1.00  0.00    -0.550 OA
ATOM     16  O   UNL     1      12.605  80.658  -0.760  1.00  0.00    -0.550 OA
ENDBRANCH  13  14
ENDBRANCH  12  13
ENDBRANCH  11  12
ENDBRANCH  10  11
ENDBRANCH   9  10
ENDBRANCH   8   9
ENDBRANCH   7   8
ENDBRANCH   6   7
ENDBRANCH   5   6
ENDBRANCH   4   5
ENDBRANCH   3   4
ENDBRANCH   2   3
ENDBRANCH   1   2
BRANCH   1  17
ATOM     17  C   UNL     1      10.250  71.348  -2.220  1.00  0.00     0.000 C 
BRANCH  17  18
ATOM     18  C   UNL     1       9.559  70.986  -3.546  1.00  0.00     0.000 C 
BRANCH  18  19
ATOM     19  C   UNL     1      10.211  71.670  -4.760  1.00  0.00     0.000 C 
BRANCH  19  20
ATOM     20  C   UNL     1       9.227  71.873  -5.926  1.00  0.00     0.000 C 
BRANCH  20  21
ATOM     21  C   UNL     1       8.823  73.347  -6.120  1.00  0.00     0.000 C 
BRANCH  21  22
ATOM     22  C   UNL     1       9.864  74.381  -5.654  1.00  0.00    -0.000 C 
BRANCH  22  23
ATOM     23  C   UNL     1       9.454  75.103  -4.359  1.00  0.00    -0.000 C 
BRANCH  23  24
ATOM     24  C   UNL     1       8.043  74.715  -3.878  1.00  0.00    -0.000 C 
BRANCH  24  25
ATOM     25  C   UNL     1       7.954  74.226  -2.417  1.00  0.00    -0.000 C 
BRANCH  25  26
ATOM     26  C   UNL     1       7.151  75.136  -1.471  1.00  0.00    -0.000 C 
BRANCH  26  27
ATOM     27  C   UNL     1       8.046  75.972  -0.544  1.00  0.00    -0.000 C 
BRANCH  27  28
ATOM     28  C   UNL     1       7.245  77.110   0.107  1.00  0.00    -0.000 C 
BRANCH  28  29
ATOM     29  C   UNL     1       7.629  78.492  -0.442  1.00  0.00    -0.003 C 
ATOM     30  C   UNL     1       8.460  78.409  -1.723  1.00  0.00     0.004 C 
ENDBRANCH  28  29
ENDBRANCH  27  28
ENDBRANCH  26  27
ENDBRANCH  25  26
ENDBRANCH  24  25
ENDBRANCH  23  24
ENDBRANCH  22  23
ENDBRANCH  21  22
ENDBRANCH  20  21
ENDBRANCH  19  20
ENDBRANCH  18  19
ENDBRANCH  17  18
ENDBRANCH   1  17
TORSDOF 26
ENDMDL
MODEL 6
REMARK VINA RESULT:    -5.950      1.479      6.117
REMARK INTER + INTRA:         -19.846
REMARK INTER:                 -14.346
REMARK INTRA:                  -5.500
REMARK UNBOUND:                -4.853
REMARK SMILES CCCCCCCCCCCCCCCCCCCCCCCCCCCC(=O)[O-]
REMARK SMILES IDX 15 1 16 2 17 3 18 4 19 5 20 6 21 7 22 8 23 9 24 10 25 11
REMARK SMILES IDX 26 12 27 13 28 14 29 15 30 16 14 17 13 18 12 19 11 20 10 21
REMARK SMILES IDX 9 22 8 23 7 24 6 25 5 26 4 27 3 28 2 29 1 30
REMARK H PARENT
REMARK Flexibility Score: inf
ROOT
ATOM      1  C   UNL     1      11.292  76.250  -1.737  1.00  0.00     0.000 C 
ENDROOT
BRANCH   1   2
ATOM      2  C   UNL     1      12.404  76.388  -0.680  1.00  0.00     0.000 C 
BRANCH   2   3
ATOM      3  C   UNL     1      11.912  77.034   0.624  1.00  0.00     0.000 C 
BRANCH   3   4
ATOM      4  C   UNL     1      12.856  78.157   1.072  1.00  0.00     0.000 C 
BRANCH   4   5
ATOM      5  C   UNL     1      13.809  78.559  -0.064  1.00  0.00     0.000 C 
BRANCH   5   6
ATOM      6  C   UNL     1      14.115  80.067  -0.081  1.00  0.00     0.000 C 
BRANCH   6   7
ATOM      7  C   UNL     1      13.323  80.892  -1.119  1.00  0.00     0.000 C 
BRANCH   7   8
ATOM      8  C   UNL     1      12.524  80.072  -2.155  1.00  0.00     0.000 C 
BRANCH   8   9
ATOM      9  C   UNL     1      11.010  80.372  -2.192  1.00  0.00     0.000 C 
BRANCH   9  10
ATOM     10  C   UNL     1      10.438  80.901  -0.863  1.00  0.00     0.000 C 
BRANCH  10  11
ATOM     11  C   UNL     1       9.559  79.883  -0.110  1.00  0.00     0.000 C 
BRANCH  11  12
ATOM     12  C   UNL     1       8.992  78.801  -1.047  1.00  0.00     0.006 C 
BRANCH  12  13
ATOM     13  C   UNL     1       8.006  77.869  -0.329  1.00  0.00     0.053 C 
BRANCH  13  14
ATOM     14  C   UNL     1       7.608  76.712  -1.193  1.00  0.00     0.041 C 
ATOM     15  O   UNL     1       7.038  75.709  -0.687  1.00  0.00    -0.550 OA
ATOM     16  O   UNL     1       7.844  76.751  -2.561  1.00  0.00    -0.550 OA
ENDBRANCH  13  14
ENDBRANCH  12  13
ENDBRANCH  11  12
ENDBRANCH  10  11
ENDBRANCH   9  10
ENDBRANCH   8   9
ENDBRANCH   7   8
ENDBRANCH   6   7
ENDBRANCH   5   6
ENDBRANCH   4   5
ENDBRANCH   3   4
ENDBRANCH   2   3
ENDBRANCH   1   2
BRANCH   1  17
ATOM     17  C   UNL     1      11.740  76.484  -3.192  1.00  0.00     0.000 C 
BRANCH  17  18
ATOM     18  C   UNL     1      13.263  76.651  -3.327  1.00  0.00     0.000 C 
BRANCH  18  19
ATOM     19  C   UNL     1      13.877  75.688  -4.358  1.00  0.00     0.000 C 
BRANCH  19  20
ATOM     20  C   UNL     1      12.836  74.737  -4.975  1.00  0.00     0.000 C 
BRANCH  20  21
ATOM     21  C   UNL     1      12.990  73.283  -4.489  1.00  0.00     0.000 C 
BRANCH  21  22
ATOM     22  C   UNL     1      13.800  73.105  -3.192  1.00  0.00    -0.000 C 
BRANCH  22  23
ATOM     23  C   UNL     1      12.909  72.964  -1.945  1.00  0.00    -0.000 C 
BRANCH  23  24
ATOM     24  C   UNL     1      11.697  72.043  -2.175  1.00  0.00    -0.000 C 
BRANCH  24  25
ATOM     25  C   UNL     1      10.317  72.706  -1.983  1.00  0.00    -0.000 C 
BRANCH  25  26
ATOM     26  C   UNL     1       9.380  72.630  -3.202  1.00  0.00    -0.000 C 
BRANCH  26  27
ATOM     27  C   UNL     1       9.720  71.466  -4.145  1.00  0.00    -0.000 C 
BRANCH  27  28
ATOM     28  C   UNL     1       9.493  71.867  -5.611  1.00  0.00    -0.000 C 
BRANCH  28  29
ATOM     29  C   UNL     1       8.678  73.162  -5.750  1.00  0.00    -0.003 C 
ATOM     30  C   UNL     1       9.481  74.301  -6.379  1.00  0.00     0.004 C 
ENDBRANCH  28  29
ENDBRANCH  27  28
ENDBRANCH  26  27
ENDBRANCH  25  26
ENDBRANCH  24  25
ENDBRANCH  23  24
ENDBRANCH  22  23
ENDBRANCH  21  22
ENDBRANCH  20  21
ENDBRANCH  19  20
ENDBRANCH  18  19
ENDBRANCH  17  18
ENDBRANCH   1  17
TORSDOF 26
ENDMDL
MODEL 7
REMARK VINA RESULT:    -5.925      1.460      2.986
REMARK INTER + INTRA:         -19.783
REMARK INTER:                 -14.798
REMARK INTRA:                  -4.986
REMARK UNBOUND:                -4.853
REMARK SMILES CCCCCCCCCCCCCCCCCCCCCCCCCCCC(=O)[O-]
REMARK SMILES IDX 15 1 16 2 17 3 18 4 19 5 20 6 21 7 22 8 23 9 24 10 25 11
REMARK SMILES IDX 26 12 27 13 28 14 29 15 30 16 14 17 13 18 12 19 11 20 10 21
REMARK SMILES IDX 9 22 8 23 7 24 6 25 5 26 4 27 3 28 2 29 1 30
REMARK H PARENT
REMARK Flexibility Score: inf
ROOT
ATOM      1  C   UNL     1      13.370  73.279  -2.332  1.00  0.00     0.000 C 
ENDROOT
BRANCH   1   2
ATOM      2  C   UNL     1      12.002  73.162  -1.632  1.00  0.00     0.000 C 
BRANCH   2   3
ATOM      3  C   UNL     1      11.382  71.764  -1.762  1.00  0.00     0.000 C 
BRANCH   3   4
ATOM      4  C   UNL     1       9.894  71.853  -2.124  1.00  0.00     0.000 C 
BRANCH   4   5
ATOM      5  C   UNL     1       9.605  71.119  -3.442  1.00  0.00     0.000 C 
BRANCH   5   6
ATOM      6  C   UNL     1      10.317  71.754  -4.649  1.00  0.00     0.000 C 
BRANCH   6   7
ATOM      7  C   UNL     1       9.523  71.731  -5.974  1.00  0.00     0.000 C 
BRANCH   7   8
ATOM      8  C   UNL     1       8.668  72.983  -6.262  1.00  0.00     0.000 C 
BRANCH   8   9
ATOM      9  C   UNL     1       9.403  74.328  -6.074  1.00  0.00     0.000 C 
BRANCH   9  10
ATOM     10  C   UNL     1       8.813  75.219  -4.964  1.00  0.00     0.000 C 
BRANCH  10  11
ATOM     11  C   UNL     1       9.668  75.273  -3.683  1.00  0.00     0.000 C 
BRANCH  11  12
ATOM     12  C   UNL     1       8.803  75.316  -2.410  1.00  0.00     0.006 C 
BRANCH  12  13
ATOM     13  C   UNL     1       7.404  74.730  -2.637  1.00  0.00     0.053 C 
BRANCH  13  14
ATOM     14  C   UNL     1       6.569  74.791  -1.395  1.00  0.00     0.041 C 
ATOM     15  O   UNL     1       6.611  75.806  -0.651  1.00  0.00    -0.550 OA
ATOM     16  O   UNL     1       5.723  73.737  -1.073  1.00  0.00    -0.550 OA
ENDBRANCH  13  14
ENDBRANCH  12  13
ENDBRANCH  11  12
ENDBRANCH  10  11
ENDBRANCH   9  10
ENDBRANCH   8   9
ENDBRANCH   7   8
ENDBRANCH   6   7
ENDBRANCH   5   6
ENDBRANCH   4   5
ENDBRANCH   3   4
ENDBRANCH   2   3
ENDBRANCH   1   2
BRANCH   1  17
ATOM     17  C   UNL     1      13.317  73.311  -3.870  1.00  0.00     0.000 C 
BRANCH  17  18
ATOM     18  C   UNL     1      13.115  74.730  -4.431  1.00  0.00     0.000 C 
BRANCH  18  19
ATOM     19  C   UNL     1      13.922  75.791  -3.663  1.00  0.00     0.000 C 
BRANCH  19  20
ATOM     20  C   UNL     1      13.101  77.057  -3.359  1.00  0.00     0.000 C 
BRANCH  20  21
ATOM     21  C   UNL     1      13.981  78.286  -3.062  1.00  0.00     0.000 C 
BRANCH  21  22
ATOM     22  C   UNL     1      13.226  79.622  -2.941  1.00  0.00    -0.000 C 
BRANCH  22  23
ATOM     23  C   UNL     1      11.883  79.486  -2.204  1.00  0.00    -0.000 C 
BRANCH  23  24
ATOM     24  C   UNL     1      11.822  80.320  -0.911  1.00  0.00    -0.000 C 
BRANCH  24  25
ATOM     25  C   UNL     1      13.083  80.259  -0.024  1.00  0.00    -0.000 C 
BRANCH  25  26
ATOM     26  C   UNL     1      12.829  79.889   1.448  1.00  0.00    -0.000 C 
BRANCH  26  27
ATOM     27  C   UNL     1      13.375  78.502   1.818  1.00  0.00    -0.000 C 
BRANCH  27  28
ATOM     28  C   UNL     1      14.018  77.826   0.597  1.00  0.00    -0.000 C 
BRANCH  28  29
ATOM     29  C   UNL     1      13.391  76.460   0.279  1.00  0.00    -0.003 C 
ATOM     30  C   UNL     1      11.875  76.536   0.090  1.00  0.00     0.004 C 
ENDBRANCH  28  29
ENDBRANCH  27  28
ENDBRANCH  26  27
ENDBRANCH  25  26
ENDBRANCH  24  25
ENDBRANCH  23  24
ENDBRANCH  22  23
ENDBRANCH  21  22
ENDBRANCH  20  21
ENDBRANCH  19  20
ENDBRANCH  18  19
ENDBRANCH  17  18
ENDBRANCH   1  17
TORSDOF 26
ENDMDL
MODEL 8
REMARK VINA RESULT:    -5.902      1.589      5.748
REMARK INTER + INTRA:         -19.727
REMARK INTER:                 -14.723
REMARK INTRA:                  -5.004
REMARK UNBOUND:                -4.853
REMARK SMILES CCCCCCCCCCCCCCCCCCCCCCCCCCCC(=O)[O-]
REMARK SMILES IDX 15 1 16 2 17 3 18 4 19 5 20 6 21 7 22 8 23 9 24 10 25 11
REMARK SMILES IDX 26 12 27 13 28 14 29 15 30 16 14 17 13 18 12 19 11 20 10 21
REMARK SMILES IDX 9 22 8 23 7 24 6 25 5 26 4 27 3 28 2 29 1 30
REMARK H PARENT
REMARK Flexibility Score: inf
ROOT
ATOM      1  C   UNL     1      13.228  75.262  -1.761  1.00  0.00     0.000 C 
ENDROOT
BRANCH   1   2
ATOM      2  C   UNL     1      12.858  75.697  -0.330  1.00  0.00     0.000 C 
BRANCH   2   3
ATOM      3  C   UNL     1      13.913  76.611   0.309  1.00  0.00     0.000 C 
BRANCH   3   4
ATOM      4  C   UNL     1      14.311  77.744  -0.647  1.00  0.00     0.000 C 
BRANCH   4   5
ATOM      5  C   UNL     1      14.767  78.985   0.133  1.00  0.00     0.000 C 
BRANCH   5   6
ATOM      6  C   UNL     1      14.447  80.301  -0.597  1.00  0.00     0.000 C 
BRANCH   6   7
ATOM      7  C   UNL     1      13.045  80.887  -0.321  1.00  0.00     0.000 C 
BRANCH   7   8
ATOM      8  C   UNL     1      12.016  80.723  -1.460  1.00  0.00     0.000 C 
BRANCH   8   9
ATOM      9  C   UNL     1      11.324  79.344  -1.516  1.00  0.00     0.000 C 
BRANCH   9  10
ATOM     10  C   UNL     1      10.449  79.027  -0.289  1.00  0.00     0.000 C 
BRANCH  10  11
ATOM     11  C   UNL     1       9.750  77.655  -0.355  1.00  0.00     0.000 C 
BRANCH  11  12
ATOM     12  C   UNL     1       8.226  77.786  -0.527  1.00  0.00     0.006 C 
BRANCH  12  13
ATOM     13  C   UNL     1       7.496  76.459  -0.284  1.00  0.00     0.053 C 
BRANCH  13  14
ATOM     14  C   UNL     1       6.168  76.669   0.377  1.00  0.00     0.041 C 
ATOM     15  O   UNL     1       5.881  77.786   0.883  1.00  0.00    -0.550 OA
ATOM     16  O   UNL     1       5.238  75.638   0.411  1.00  0.00    -0.550 OA
ENDBRANCH  13  14
ENDBRANCH  12  13
ENDBRANCH  11  12
ENDBRANCH  10  11
ENDBRANCH   9  10
ENDBRANCH   8   9
ENDBRANCH   7   8
ENDBRANCH   6   7
ENDBRANCH   5   6
ENDBRANCH   4   5
ENDBRANCH   3   4
ENDBRANCH   2   3
ENDBRANCH   1   2
BRANCH   1  17
ATOM     17  C   UNL     1      13.534  73.763  -1.931  1.00  0.00     0.000 C 
BRANCH  17  18
ATOM     18  C   UNL     1      13.387  73.285  -3.386  1.00  0.00     0.000 C 
BRANCH  18  19
ATOM     19  C   UNL     1      13.035  74.429  -4.353  1.00  0.00     0.000 C 
BRANCH  19  20
ATOM     20  C   UNL     1      12.326  73.934  -5.626  1.00  0.00     0.000 C 
BRANCH  20  21
ATOM     21  C   UNL     1      11.637  72.569  -5.437  1.00  0.00     0.000 C 
BRANCH  21  22
ATOM     22  C   UNL     1      10.153  72.520  -5.844  1.00  0.00    -0.000 C 
BRANCH  22  23
ATOM     23  C   UNL     1       9.283  71.744  -4.840  1.00  0.00    -0.000 C 
BRANCH  23  24
ATOM     24  C   UNL     1      10.054  71.327  -3.574  1.00  0.00    -0.000 C 
BRANCH  24  25
ATOM     25  C   UNL     1       9.490  71.875  -2.246  1.00  0.00    -0.000 C 
BRANCH  25  26
ATOM     26  C   UNL     1       8.851  73.272  -2.334  1.00  0.00    -0.000 C 
BRANCH  26  27
ATOM     27  C   UNL     1       9.884  74.407  -2.266  1.00  0.00    -0.000 C 
BRANCH  27  28
ATOM     28  C   UNL     1       9.609  75.460  -3.350  1.00  0.00    -0.000 C 
BRANCH  28  29
ATOM     29  C   UNL     1       8.333  75.164  -4.153  1.00  0.00    -0.003 C 
ATOM     30  C   UNL     1       7.271  76.253  -3.997  1.00  0.00     0.004 C 
ENDBRANCH  28  29
ENDBRANCH  27  28
ENDBRANCH  26  27
ENDBRANCH  25  26
ENDBRANCH  24  25
ENDBRANCH  23  24
ENDBRANCH  22  23
ENDBRANCH  21  22
ENDBRANCH  20  21
ENDBRANCH  19  20
ENDBRANCH  18  19
ENDBRANCH  17  18
ENDBRANCH   1  17
TORSDOF 26
ENDMDL
MODEL 9
REMARK VINA RESULT:    -5.889      1.448      6.223
REMARK INTER + INTRA:         -19.694
REMARK INTER:                 -14.451
REMARK INTRA:                  -5.243
REMARK UNBOUND:                -4.853
REMARK SMILES CCCCCCCCCCCCCCCCCCCCCCCCCCCC(=O)[O-]
REMARK SMILES IDX 15 1 16 2 17 3 18 4 19 5 20 6 21 7 22 8 23 9 24 10 25 11
REMARK SMILES IDX 26 12 27 13 28 14 29 15 30 16 14 17 13 18 12 19 11 20 10 21
REMARK SMILES IDX 9 22 8 23 7 24 6 25 5 26 4 27 3 28 2 29 1 30
REMARK H PARENT
REMARK Flexibility Score: inf
ROOT
ATOM      1  C   UNL     1      12.358  76.991  -2.899  1.00  0.00     0.000 C 
ENDROOT
BRANCH   1   2
ATOM      2  C   UNL     1      13.547  77.737  -2.265  1.00  0.00     0.000 C 
BRANCH   2   3
ATOM      3  C   UNL     1      13.457  77.814  -0.734  1.00  0.00     0.000 C 
BRANCH   3   4
ATOM      4  C   UNL     1      13.665  79.253  -0.242  1.00  0.00     0.000 C 
BRANCH   4   5
ATOM      5  C   UNL     1      13.387  80.262  -1.366  1.00  0.00     0.000 C 
BRANCH   5   6
ATOM      6  C   UNL     1      11.961  80.837  -1.313  1.00  0.00     0.000 C 
BRANCH   6   7
ATOM      7  C   UNL     1      11.162  80.510  -0.032  1.00  0.00     0.000 C 
BRANCH   7   8
ATOM      8  C   UNL     1       9.689  80.102  -0.250  1.00  0.00     0.000 C 
BRANCH   8   9
ATOM      9  C   UNL     1       9.365  79.573  -1.664  1.00  0.00     0.000 C 
BRANCH   9  10
ATOM     10  C   UNL     1       8.080  78.727  -1.742  1.00  0.00     0.000 C 
BRANCH  10  11
ATOM     11  C   UNL     1       7.539  78.280  -0.369  1.00  0.00     0.000 C 
BRANCH  11  12
ATOM     12  C   UNL     1       7.662  76.759  -0.163  1.00  0.00     0.006 C 
BRANCH  12  13
ATOM     13  C   UNL     1       6.867  75.965  -1.207  1.00  0.00     0.053 C 
BRANCH  13  14
ATOM     14  C   UNL     1       5.825  75.098  -0.568  1.00  0.00     0.041 C 
ATOM     15  O   UNL     1       4.995  75.593   0.239  1.00  0.00    -0.550 OA
ATOM     16  O   UNL     1       5.755  73.747  -0.886  1.00  0.00    -0.550 OA
ENDBRANCH  13  14
ENDBRANCH  12  13
ENDBRANCH  11  12
ENDBRANCH  10  11
ENDBRANCH   9  10
ENDBRANCH   8   9
ENDBRANCH   7   8
ENDBRANCH   6   7
ENDBRANCH   5   6
ENDBRANCH   4   5
ENDBRANCH   3   4
ENDBRANCH   2   3
ENDBRANCH   1   2
BRANCH   1  17
ATOM     17  C   UNL     1      11.341  76.412  -1.898  1.00  0.00     0.000 C 
BRANCH  17  18
ATOM     18  C   UNL     1      10.303  75.493  -2.567  1.00  0.00     0.000 C 
BRANCH  18  19
ATOM     19  C   UNL     1       9.962  74.261  -1.711  1.00  0.00     0.000 C 
BRANCH  19  20
ATOM     20  C   UNL     1       9.075  73.248  -2.455  1.00  0.00     0.000 C 
BRANCH  20  21
ATOM     21  C   UNL     1       9.753  71.877  -2.637  1.00  0.00     0.000 C 
BRANCH  21  22
ATOM     22  C   UNL     1       9.823  71.365  -4.087  1.00  0.00    -0.000 C 
BRANCH  22  23
ATOM     23  C   UNL     1       9.049  72.255  -5.074  1.00  0.00    -0.000 C 
BRANCH  23  24
ATOM     24  C   UNL     1       9.969  73.162  -5.912  1.00  0.00    -0.000 C 
BRANCH  24  25
ATOM     25  C   UNL     1      11.482  72.946  -5.702  1.00  0.00    -0.000 C 
BRANCH  25  26
ATOM     26  C   UNL     1      12.294  74.224  -5.429  1.00  0.00    -0.000 C 
BRANCH  26  27
ATOM     27  C   UNL     1      13.494  73.983  -4.502  1.00  0.00    -0.000 C 
BRANCH  27  28
ATOM     28  C   UNL     1      13.110  73.052  -3.342  1.00  0.00    -0.000 C 
BRANCH  28  29
ATOM     29  C   UNL     1      14.127  73.090  -2.192  1.00  0.00    -0.003 C 
ATOM     30  C   UNL     1      13.587  73.796  -0.948  1.00  0.00     0.004 C 
ENDBRANCH  28  29
ENDBRANCH  27  28
ENDBRANCH  26  27
ENDBRANCH  25  26
ENDBRANCH  24  25
ENDBRANCH  23  24
ENDBRANCH  22  23
ENDBRANCH  21  22
ENDBRANCH  20  21
ENDBRANCH  19  20
ENDBRANCH  18  19
ENDBRANCH  17  18
ENDBRANCH   1  17
TORSDOF 26
ENDMDL
