MODEL 1
REMARK VINA RESULT:    -5.037      0.000      0.000
REMARK INTER + INTRA:          -6.401
REMARK INTER:                  -6.067
REMARK INTRA:                  -0.334
REMARK UNBOUND:                -0.334
REMARK SMILES O=c1c(O)c(-c2ccc(O)c(O)c2)oc2cc(O)cc(O)c12
REMARK SMILES IDX 5 1 3 2 2 3 1 4 22 5 20 6 19 7 17 8 16 9 15 10 14 11 6 12
REMARK SMILES IDX 7 13 8 14 9 15 13 16 11 17 10 18 12 20 4 22 21 24 18 26
REMARK H PARENT 10 19 12 21 4 23 21 25 18 27
REMARK Flexibility Score: inf
ROOT
ATOM      1  C   UNL     1     125.085  16.198 150.911  1.00  0.00     0.180 A 
ATOM      2  C   UNL     1     126.414  15.946 151.294  1.00  0.00     0.208 A 
ATOM      3  C   UNL     1     127.311  17.022 151.387  1.00  0.00     0.238 A 
ATOM      4  O   UNL     1     128.513  16.783 151.678  1.00  0.00    -0.285 OA
ATOM      5  C   UNL     1     126.865  18.337 151.112  1.00  0.00     0.111 A 
ATOM      6  C   UNL     1     127.678  19.506 151.213  1.00  0.00     0.134 A 
ATOM      7  C   UNL     1     127.168  20.740 150.791  1.00  0.00     0.093 A 
ATOM      8  C   UNL     1     125.858  20.859 150.332  1.00  0.00     0.123 A 
ATOM      9  C   UNL     1     125.034  19.732 150.285  1.00  0.00     0.094 A 
ATOM     10  C   UNL     1     125.525  18.481 150.665  1.00  0.00     0.146 A 
ATOM     11  O   UNL     1     124.715  17.433 150.595  1.00  0.00    -0.452 OA
ENDROOT
BRANCH   1  12
ATOM     12  C   UNL     1     124.075  15.119 150.814  1.00  0.00     0.025 A 
ATOM     13  C   UNL     1     123.835  14.505 149.575  1.00  0.00     0.016 A 
ATOM     14  C   UNL     1     122.872  13.500 149.457  1.00  0.00     0.051 A 
ATOM     15  C   UNL     1     122.124  13.105 150.573  1.00  0.00     0.157 A 
ATOM     16  C   UNL     1     123.306  14.734 151.927  1.00  0.00     0.062 A 
ATOM     17  C   UNL     1     122.339  13.729 151.813  1.00  0.00     0.158 A 
BRANCH  15  18
ATOM     18  O   UNL     1     121.164  12.101 150.452  1.00  0.00    -0.504 OA
ATOM     19  H   UNL     1     120.459  11.952 151.164  1.00  0.00     0.293 HD
ENDBRANCH  15  18
BRANCH  17  20
ATOM     20  O   UNL     1     121.599  13.369 152.939  1.00  0.00    -0.504 OA
ATOM     21  H   UNL     1     121.845  13.685 153.868  1.00  0.00     0.293 HD
ENDBRANCH  17  20
ENDBRANCH   1  12
BRANCH   2  22
ATOM     22  O   UNL     1     126.839  14.637 151.539  1.00  0.00    -0.502 OA
ATOM     23  H   UNL     1     127.536  14.414 152.239  1.00  0.00     0.293 HD
ENDBRANCH   2  22
BRANCH   6  24
ATOM     24  O   UNL     1     128.971  19.514 151.744  1.00  0.00    -0.507 OA
ATOM     25  H   UNL     1     129.399  18.738 152.227  1.00  0.00     0.293 HD
ENDBRANCH   6  24
BRANCH   8  26
ATOM     26  O   UNL     1     125.378  22.106 149.934  1.00  0.00    -0.508 OA
ATOM     27  H   UNL     1     125.715  22.963 150.357  1.00  0.00     0.293 HD
ENDBRANCH   8  26
TORSDOF 6
ENDMDL
MODEL 2
REMARK VINA RESULT:    -4.451     11.388     14.237
REMARK INTER + INTRA:          -5.696
REMARK INTER:                  -5.408
REMARK INTRA:                  -0.288
REMARK UNBOUND:                -0.334
REMARK SMILES O=c1c(O)c(-c2ccc(O)c(O)c2)oc2cc(O)cc(O)c12
REMARK SMILES IDX 5 1 3 2 2 3 1 4 22 5 20 6 19 7 17 8 16 9 15 10 14 11 6 12
REMARK SMILES IDX 7 13 8 14 9 15 13 16 11 17 10 18 12 20 4 22 21 24 18 26
REMARK H PARENT 10 19 12 21 4 23 21 25 18 27
REMARK Flexibility Score: inf
ROOT
ATOM      1  C   UNL     1     116.029  16.458 141.221  1.00  0.00     0.180 A 
ATOM      2  C   UNL     1     115.081  15.424 141.306  1.00  0.00     0.208 A 
ATOM      3  C   UNL     1     114.789  14.871 142.563  1.00  0.00     0.238 A 
ATOM      4  O   UNL     1     113.979  13.909 142.627  1.00  0.00    -0.285 OA
ATOM      5  C   UNL     1     115.434  15.370 143.720  1.00  0.00     0.111 A 
ATOM      6  C   UNL     1     115.184  14.912 145.049  1.00  0.00     0.134 A 
ATOM      7  C   UNL     1     115.975  15.387 146.102  1.00  0.00     0.093 A 
ATOM      8  C   UNL     1     116.961  16.348 145.887  1.00  0.00     0.123 A 
ATOM      9  C   UNL     1     117.174  16.847 144.601  1.00  0.00     0.094 A 
ATOM     10  C   UNL     1     116.426  16.367 143.523  1.00  0.00     0.146 A 
ATOM     11  O   UNL     1     116.666  16.859 142.315  1.00  0.00    -0.452 OA
ENDROOT
BRANCH   1  12
ATOM     12  C   UNL     1     116.373  17.107 139.935  1.00  0.00     0.025 A 
ATOM     13  C   UNL     1     117.272  16.477 139.060  1.00  0.00     0.016 A 
ATOM     14  C   UNL     1     117.627  17.081 137.852  1.00  0.00     0.051 A 
ATOM     15  C   UNL     1     117.099  18.332 137.506  1.00  0.00     0.157 A 
ATOM     16  C   UNL     1     115.862  18.372 139.593  1.00  0.00     0.062 A 
ATOM     17  C   UNL     1     116.216  18.982 138.385  1.00  0.00     0.158 A 
BRANCH  15  18
ATOM     18  O   UNL     1     117.453  18.932 136.299  1.00  0.00    -0.504 OA
ATOM     19  H   UNL     1     118.137  19.679 136.257  1.00  0.00     0.293 HD
ENDBRANCH  15  18
BRANCH  17  20
ATOM     20  O   UNL     1     115.686  20.235 138.076  1.00  0.00    -0.504 OA
ATOM     21  H   UNL     1     115.187  20.791 138.759  1.00  0.00     0.293 HD
ENDBRANCH  17  20
ENDBRANCH   1  12
BRANCH   2  22
ATOM     22  O   UNL     1     114.473  14.930 140.149  1.00  0.00    -0.502 OA
ATOM     23  H   UNL     1     113.589  14.438 140.168  1.00  0.00     0.293 HD
ENDBRANCH   2  22
BRANCH   6  24
ATOM     24  O   UNL     1     114.162  14.022 145.388  1.00  0.00    -0.507 OA
ATOM     25  H   UNL     1     113.188  14.149 145.156  1.00  0.00     0.293 HD
ENDBRANCH   6  24
BRANCH   8  26
ATOM     26  O   UNL     1     117.719  16.809 146.962  1.00  0.00    -0.508 OA
ATOM     27  H   UNL     1     117.641  17.763 147.295  1.00  0.00     0.293 HD
ENDBRANCH   8  26
TORSDOF 6
ENDMDL
MODEL 3
REMARK VINA RESULT:    -4.442      1.362      2.846
REMARK INTER + INTRA:          -5.685
REMARK INTER:                  -5.564
REMARK INTRA:                  -0.121
REMARK UNBOUND:                -0.334
REMARK SMILES O=c1c(O)c(-c2ccc(O)c(O)c2)oc2cc(O)cc(O)c12
REMARK SMILES IDX 5 1 3 2 2 3 1 4 22 5 20 6 19 7 17 8 16 9 15 10 14 11 6 12
REMARK SMILES IDX 7 13 8 14 9 15 13 16 11 17 10 18 12 20 4 22 21 24 18 26
REMARK H PARENT 10 19 12 21 4 23 21 25 18 27
REMARK Flexibility Score: inf
ROOT
ATOM      1  C   UNL     1     123.910  16.805 150.854  1.00  0.00     0.180 A 
ATOM      2  C   UNL     1     123.212  17.983 151.170  1.00  0.00     0.208 A 
ATOM      3  C   UNL     1     123.895  19.209 151.135  1.00  0.00     0.238 A 
ATOM      4  O   UNL     1     123.279  20.254 151.471  1.00  0.00    -0.285 OA
ATOM      5  C   UNL     1     125.262  19.243 150.768  1.00  0.00     0.111 A 
ATOM      6  C   UNL     1     126.043  20.434 150.660  1.00  0.00     0.134 A 
ATOM      7  C   UNL     1     127.418  20.337 150.417  1.00  0.00     0.093 A 
ATOM      8  C   UNL     1     128.029  19.102 150.213  1.00  0.00     0.123 A 
ATOM      9  C   UNL     1     127.264  17.934 150.258  1.00  0.00     0.094 A 
ATOM     10  C   UNL     1     125.897  17.995 150.534  1.00  0.00     0.146 A 
ATOM     11  O   UNL     1     125.207  16.862 150.578  1.00  0.00    -0.452 OA
ENDROOT
BRANCH   1  12
ATOM     12  C   UNL     1     123.252  15.478 150.846  1.00  0.00     0.025 A 
ATOM     13  C   UNL     1     123.150  14.764 149.642  1.00  0.00     0.016 A 
ATOM     14  C   UNL     1     122.515  13.520 149.607  1.00  0.00     0.051 A 
ATOM     15  C   UNL     1     121.959  12.978 150.773  1.00  0.00     0.157 A 
ATOM     16  C   UNL     1     122.674  14.939 152.010  1.00  0.00     0.062 A 
ATOM     17  C   UNL     1     122.035  13.695 151.979  1.00  0.00     0.158 A 
BRANCH  15  18
ATOM     18  O   UNL     1     121.328  11.736 150.735  1.00  0.00    -0.504 OA
ATOM     19  H   UNL     1     121.076  11.242 151.584  1.00  0.00     0.293 HD
ENDBRANCH  15  18
BRANCH  17  20
ATOM     20  O   UNL     1     121.478  13.189 153.153  1.00  0.00    -0.504 OA
ATOM     21  H   UNL     1     120.900  13.754 153.762  1.00  0.00     0.293 HD
ENDBRANCH  17  20
ENDBRANCH   1  12
BRANCH   2  22
ATOM     22  O   UNL     1     121.869  17.924 151.552  1.00  0.00    -0.502 OA
ATOM     23  H   UNL     1     121.118  17.809 150.882  1.00  0.00     0.293 HD
ENDBRANCH   2  22
BRANCH   6  24
ATOM     24  O   UNL     1     125.515  21.724 150.754  1.00  0.00    -0.507 OA
ATOM     25  H   UNL     1     125.746  22.389 151.478  1.00  0.00     0.293 HD
ENDBRANCH   6  24
BRANCH   8  26
ATOM     26  O   UNL     1     129.398  19.044 149.958  1.00  0.00    -0.508 OA
ATOM     27  H   UNL     1     130.035  19.742 150.324  1.00  0.00     0.293 HD
ENDBRANCH   8  26
TORSDOF 6
ENDMDL
MODEL 4
REMARK VINA RESULT:    -4.413     11.646     13.667
REMARK INTER + INTRA:          -5.650
REMARK INTER:                  -5.358
REMARK INTRA:                  -0.292
REMARK UNBOUND:                -0.334
REMARK SMILES O=c1c(O)c(-c2ccc(O)c(O)c2)oc2cc(O)cc(O)c12
REMARK SMILES IDX 5 1 3 2 2 3 1 4 22 5 20 6 19 7 17 8 16 9 15 10 14 11 6 12
REMARK SMILES IDX 7 13 8 14 9 15 13 16 11 17 10 18 12 20 4 22 21 24 18 26
REMARK H PARENT 10 19 12 21 4 23 21 25 18 27
REMARK Flexibility Score: inf
ROOT
ATOM      1  C   UNL     1     116.037  16.416 141.775  1.00  0.00     0.180 A 
ATOM      2  C   UNL     1     116.515  15.644 140.702  1.00  0.00     0.208 A 
ATOM      3  C   UNL     1     116.612  16.231 139.431  1.00  0.00     0.238 A 
ATOM      4  O   UNL     1     116.990  15.519 138.463  1.00  0.00    -0.285 OA
ATOM      5  C   UNL     1     116.247  17.587 139.251  1.00  0.00     0.111 A 
ATOM      6  C   UNL     1     116.344  18.295 138.016  1.00  0.00     0.134 A 
ATOM      7  C   UNL     1     115.831  19.595 137.924  1.00  0.00     0.093 A 
ATOM      8  C   UNL     1     115.286  20.235 139.035  1.00  0.00     0.123 A 
ATOM      9  C   UNL     1     115.241  19.573 140.263  1.00  0.00     0.094 A 
ATOM     10  C   UNL     1     115.711  18.263 140.379  1.00  0.00     0.146 A 
ATOM     11  O   UNL     1     115.640  17.665 141.560  1.00  0.00    -0.452 OA
ENDROOT
BRANCH   1  12
ATOM     12  C   UNL     1     115.929  15.874 143.149  1.00  0.00     0.025 A 
ATOM     13  C   UNL     1     114.822  15.084 143.496  1.00  0.00     0.016 A 
ATOM     14  C   UNL     1     114.689  14.580 144.792  1.00  0.00     0.051 A 
ATOM     15  C   UNL     1     115.654  14.872 145.765  1.00  0.00     0.157 A 
ATOM     16  C   UNL     1     116.884  16.182 144.135  1.00  0.00     0.062 A 
ATOM     17  C   UNL     1     116.754  15.681 145.435  1.00  0.00     0.158 A 
BRANCH  15  18
ATOM     18  O   UNL     1     115.520  14.367 147.057  1.00  0.00    -0.504 OA
ATOM     19  H   UNL     1     115.814  13.426 147.292  1.00  0.00     0.293 HD
ENDBRANCH  15  18
BRANCH  17  20
ATOM     20  O   UNL     1     117.723  16.002 146.385  1.00  0.00    -0.504 OA
ATOM     21  H   UNL     1     118.709  16.034 146.159  1.00  0.00     0.293 HD
ENDBRANCH  17  20
ENDBRANCH   1  12
BRANCH   2  22
ATOM     22  O   UNL     1     116.849  14.301 140.897  1.00  0.00    -0.502 OA
ATOM     23  H   UNL     1     116.453  13.745 141.644  1.00  0.00     0.293 HD
ENDBRANCH   2  22
BRANCH   6  24
ATOM     24  O   UNL     1     116.954  17.783 136.868  1.00  0.00    -0.507 OA
ATOM     25  H   UNL     1     117.898  17.430 136.827  1.00  0.00     0.293 HD
ENDBRANCH   6  24
BRANCH   8  26
ATOM     26  O   UNL     1     114.799  21.535 138.911  1.00  0.00    -0.508 OA
ATOM     27  H   UNL     1     115.303  22.242 138.386  1.00  0.00     0.293 HD
ENDBRANCH   8  26
TORSDOF 6
ENDMDL
MODEL 5
REMARK VINA RESULT:    -4.347      6.413      9.651
REMARK INTER + INTRA:          -5.571
REMARK INTER:                  -5.396
REMARK INTRA:                  -0.174
REMARK UNBOUND:                -0.334
REMARK SMILES O=c1c(O)c(-c2ccc(O)c(O)c2)oc2cc(O)cc(O)c12
REMARK SMILES IDX 5 1 3 2 2 3 1 4 22 5 20 6 19 7 17 8 16 9 15 10 14 11 6 12
REMARK SMILES IDX 7 13 8 14 9 15 13 16 11 17 10 18 12 20 4 22 21 24 18 26
REMARK H PARENT 10 19 12 21 4 23 21 25 18 27
REMARK Flexibility Score: inf
ROOT
ATOM      1  C   UNL     1     129.760  11.927 152.350  1.00  0.00     0.180 A 
ATOM      2  C   UNL     1     128.942  11.012 153.035  1.00  0.00     0.208 A 
ATOM      3  C   UNL     1     129.273   9.648 153.005  1.00  0.00     0.238 A 
ATOM      4  O   UNL     1     128.506   8.827 153.575  1.00  0.00    -0.285 OA
ATOM      5  C   UNL     1     130.426   9.218 152.305  1.00  0.00     0.111 A 
ATOM      6  C   UNL     1     130.878   7.865 152.242  1.00  0.00     0.134 A 
ATOM      7  C   UNL     1     131.957   7.536 151.413  1.00  0.00     0.093 A 
ATOM      8  C   UNL     1     132.641   8.517 150.697  1.00  0.00     0.123 A 
ATOM      9  C   UNL     1     132.244   9.852 150.798  1.00  0.00     0.094 A 
ATOM     10  C   UNL     1     131.149  10.207 151.588  1.00  0.00     0.146 A 
ATOM     11  O   UNL     1     130.797  11.485 151.649  1.00  0.00    -0.452 OA
ENDROOT
BRANCH   1  12
ATOM     12  C   UNL     1     129.490  13.383 152.356  1.00  0.00     0.025 A 
ATOM     13  C   UNL     1     129.575  14.097 153.561  1.00  0.00     0.016 A 
ATOM     14  C   UNL     1     129.304  15.467 153.594  1.00  0.00     0.051 A 
ATOM     15  C   UNL     1     128.929  16.141 152.424  1.00  0.00     0.157 A 
ATOM     16  C   UNL     1     129.094  14.059 151.188  1.00  0.00     0.062 A 
ATOM     17  C   UNL     1     128.819  15.431 151.217  1.00  0.00     0.158 A 
BRANCH  15  18
ATOM     18  O   UNL     1     128.662  17.508 152.459  1.00  0.00    -0.504 OA
ATOM     19  H   UNL     1     128.338  18.007 151.638  1.00  0.00     0.293 HD
ENDBRANCH  15  18
BRANCH  17  20
ATOM     20  O   UNL     1     128.433  16.070 150.038  1.00  0.00    -0.504 OA
ATOM     21  H   UNL     1     127.963  15.579 149.289  1.00  0.00     0.293 HD
ENDBRANCH  17  20
ENDBRANCH   1  12
BRANCH   2  22
ATOM     22  O   UNL     1     127.796  11.455 153.701  1.00  0.00    -0.502 OA
ATOM     23  H   UNL     1     127.706  12.397 154.061  1.00  0.00     0.293 HD
ENDBRANCH   2  22
BRANCH   6  24
ATOM     24  O   UNL     1     130.325   6.822 152.989  1.00  0.00    -0.507 OA
ATOM     25  H   UNL     1     129.446   6.871 153.484  1.00  0.00     0.293 HD
ENDBRANCH   6  24
BRANCH   8  26
ATOM     26  O   UNL     1     133.721   8.156 149.893  1.00  0.00    -0.508 OA
ATOM     27  H   UNL     1     134.461   8.812 149.674  1.00  0.00     0.293 HD
ENDBRANCH   8  26
TORSDOF 6
ENDMDL
MODEL 6
REMARK VINA RESULT:    -4.309      1.424      2.991
REMARK INTER + INTRA:          -5.525
REMARK INTER:                  -5.211
REMARK INTRA:                  -0.314
REMARK UNBOUND:                -0.334
REMARK SMILES O=c1c(O)c(-c2ccc(O)c(O)c2)oc2cc(O)cc(O)c12
REMARK SMILES IDX 5 1 3 2 2 3 1 4 22 5 20 6 19 7 17 8 16 9 15 10 14 11 6 12
REMARK SMILES IDX 7 13 8 14 9 15 13 16 11 17 10 18 12 20 4 22 21 24 18 26
REMARK H PARENT 10 19 12 21 4 23 21 25 18 27
REMARK Flexibility Score: inf
ROOT
ATOM      1  C   UNL     1     124.669  16.489 151.452  1.00  0.00     0.180 A 
ATOM      2  C   UNL     1     124.196  17.811 151.383  1.00  0.00     0.208 A 
ATOM      3  C   UNL     1     125.095  18.868 151.596  1.00  0.00     0.238 A 
ATOM      4  O   UNL     1     124.655  20.047 151.587  1.00  0.00    -0.285 OA
ATOM      5  C   UNL     1     126.459  18.591 151.857  1.00  0.00     0.111 A 
ATOM      6  C   UNL     1     127.466  19.585 152.048  1.00  0.00     0.134 A 
ATOM      7  C   UNL     1     128.755  19.196 152.431  1.00  0.00     0.093 A 
ATOM      8  C   UNL     1     129.092  17.851 152.566  1.00  0.00     0.123 A 
ATOM      9  C   UNL     1     128.131  16.868 152.323  1.00  0.00     0.094 A 
ATOM     10  C   UNL     1     126.826  17.225 151.976  1.00  0.00     0.146 A 
ATOM     11  O   UNL     1     125.939  16.261 151.765  1.00  0.00    -0.452 OA
ENDROOT
BRANCH   1  12
ATOM     12  C   UNL     1     123.787  15.323 151.216  1.00  0.00     0.025 A 
ATOM     13  C   UNL     1     123.693  14.778 149.926  1.00  0.00     0.016 A 
ATOM     14  C   UNL     1     122.851  13.692 149.676  1.00  0.00     0.051 A 
ATOM     15  C   UNL     1     122.080  13.144 150.709  1.00  0.00     0.157 A 
ATOM     16  C   UNL     1     122.995  14.783 152.245  1.00  0.00     0.062 A 
ATOM     17  C   UNL     1     122.149  13.697 151.998  1.00  0.00     0.158 A 
BRANCH  15  18
ATOM     18  O   UNL     1     121.242  12.058 150.457  1.00  0.00    -0.504 OA
ATOM     19  H   UNL     1     121.611  11.127 150.302  1.00  0.00     0.293 HD
ENDBRANCH  15  18
BRANCH  17  20
ATOM     20  O   UNL     1     121.382  13.184 153.044  1.00  0.00    -0.504 OA
ATOM     21  H   UNL     1     120.543  12.641 152.881  1.00  0.00     0.293 HD
ENDBRANCH  17  20
ENDBRANCH   1  12
BRANCH   2  22
ATOM     22  O   UNL     1     122.842  18.062 151.146  1.00  0.00    -0.502 OA
ATOM     23  H   UNL     1     122.104  17.551 151.615  1.00  0.00     0.293 HD
ENDBRANCH   2  22
BRANCH   6  24
ATOM     24  O   UNL     1     127.259  20.953 151.849  1.00  0.00    -0.507 OA
ATOM     25  H   UNL     1     126.673  21.536 152.427  1.00  0.00     0.293 HD
ENDBRANCH   6  24
BRANCH   8  26
ATOM     26  O   UNL     1     130.390  17.500 152.933  1.00  0.00    -0.508 OA
ATOM     27  H   UNL     1     130.863  17.952 153.707  1.00  0.00     0.293 HD
ENDBRANCH   8  26
TORSDOF 6
ENDMDL
MODEL 7
REMARK VINA RESULT:    -4.303     14.614     16.818
REMARK INTER + INTRA:          -5.518
REMARK INTER:                  -5.207
REMARK INTRA:                  -0.311
REMARK UNBOUND:                -0.334
REMARK SMILES O=c1c(O)c(-c2ccc(O)c(O)c2)oc2cc(O)cc(O)c12
REMARK SMILES IDX 5 1 3 2 2 3 1 4 22 5 20 6 19 7 17 8 16 9 15 10 14 11 6 12
REMARK SMILES IDX 7 13 8 14 9 15 13 16 11 17 10 18 12 20 4 22 21 24 18 26
REMARK H PARENT 10 19 12 21 4 23 21 25 18 27
REMARK Flexibility Score: inf
ROOT
ATOM      1  C   UNL     1     127.389   8.256 137.476  1.00  0.00     0.180 A 
ATOM      2  C   UNL     1     128.329   7.585 136.675  1.00  0.00     0.208 A 
ATOM      3  C   UNL     1     129.188   6.649 137.272  1.00  0.00     0.238 A 
ATOM      4  O   UNL     1     130.064   6.092 136.560  1.00  0.00    -0.285 OA
ATOM      5  C   UNL     1     129.085   6.382 138.659  1.00  0.00     0.111 A 
ATOM      6  C   UNL     1     129.877   5.424 139.361  1.00  0.00     0.134 A 
ATOM      7  C   UNL     1     129.780   5.337 140.755  1.00  0.00     0.093 A 
ATOM      8  C   UNL     1     128.877   6.125 141.465  1.00  0.00     0.123 A 
ATOM      9  C   UNL     1     128.054   7.024 140.782  1.00  0.00     0.094 A 
ATOM     10  C   UNL     1     128.153   7.160 139.396  1.00  0.00     0.146 A 
ATOM     11  O   UNL     1     127.362   8.032 138.785  1.00  0.00    -0.452 OA
ENDROOT
BRANCH   1  12
ATOM     12  C   UNL     1     126.434   9.239 136.915  1.00  0.00     0.025 A 
ATOM     13  C   UNL     1     126.669  10.611 137.092  1.00  0.00     0.016 A 
ATOM     14  C   UNL     1     125.770  11.555 136.590  1.00  0.00     0.051 A 
ATOM     15  C   UNL     1     124.614  11.140 135.916  1.00  0.00     0.157 A 
ATOM     16  C   UNL     1     125.262   8.826 136.256  1.00  0.00     0.062 A 
ATOM     17  C   UNL     1     124.357   9.768 135.753  1.00  0.00     0.158 A 
BRANCH  15  18
ATOM     18  O   UNL     1     123.720  12.084 135.414  1.00  0.00    -0.504 OA
ATOM     19  H   UNL     1     123.929  12.623 134.582  1.00  0.00     0.293 HD
ENDBRANCH  15  18
BRANCH  17  20
ATOM     20  O   UNL     1     123.208   9.324 135.100  1.00  0.00    -0.504 OA
ATOM     21  H   UNL     1     122.960   8.344 135.055  1.00  0.00     0.293 HD
ENDBRANCH  17  20
ENDBRANCH   1  12
BRANCH   2  22
ATOM     22  O   UNL     1     128.429   7.880 135.313  1.00  0.00    -0.502 OA
ATOM     23  H   UNL     1     129.069   7.394 134.697  1.00  0.00     0.293 HD
ENDBRANCH   2  22
BRANCH   6  24
ATOM     24  O   UNL     1     130.745   4.523 138.738  1.00  0.00    -0.507 OA
ATOM     25  H   UNL     1     131.274   4.719 137.902  1.00  0.00     0.293 HD
ENDBRANCH   6  24
BRANCH   8  26
ATOM     26  O   UNL     1     128.796   6.001 142.851  1.00  0.00    -0.508 OA
ATOM     27  H   UNL     1     129.135   6.729 143.469  1.00  0.00     0.293 HD
ENDBRANCH   8  26
TORSDOF 6
ENDMDL
MODEL 8
REMARK VINA RESULT:    -4.227      2.713      4.965
REMARK INTER + INTRA:          -5.426
REMARK INTER:                  -5.183
REMARK INTRA:                  -0.243
REMARK UNBOUND:                -0.334
REMARK SMILES O=c1c(O)c(-c2ccc(O)c(O)c2)oc2cc(O)cc(O)c12
REMARK SMILES IDX 5 1 3 2 2 3 1 4 22 5 20 6 19 7 17 8 16 9 15 10 14 11 6 12
REMARK SMILES IDX 7 13 8 14 9 15 13 16 11 17 10 18 12 20 4 22 21 24 18 26
REMARK H PARENT 10 19 12 21 4 23 21 25 18 27
REMARK Flexibility Score: inf
ROOT
ATOM      1  C   UNL     1     127.582  15.911 151.322  1.00  0.00     0.180 A 
ATOM      2  C   UNL     1     126.268  15.920 150.824  1.00  0.00     0.208 A 
ATOM      3  C   UNL     1     125.706  17.137 150.407  1.00  0.00     0.238 A 
ATOM      4  O   UNL     1     124.511  17.148 150.012  1.00  0.00    -0.285 OA
ATOM      5  C   UNL     1     126.471  18.327 150.477  1.00  0.00     0.111 A 
ATOM      6  C   UNL     1     126.017  19.609 150.044  1.00  0.00     0.134 A 
ATOM      7  C   UNL     1     126.810  20.738 150.281  1.00  0.00     0.093 A 
ATOM      8  C   UNL     1     128.066  20.625 150.876  1.00  0.00     0.123 A 
ATOM      9  C   UNL     1     128.545  19.368 151.249  1.00  0.00     0.094 A 
ATOM     10  C   UNL     1     127.763  18.227 151.059  1.00  0.00     0.146 A 
ATOM     11  O   UNL     1     128.250  17.053 151.437  1.00  0.00    -0.452 OA
ENDROOT
BRANCH   1  12
ATOM     12  C   UNL     1     128.250  14.663 151.759  1.00  0.00     0.025 A 
ATOM     13  C   UNL     1     127.889  14.076 152.981  1.00  0.00     0.016 A 
ATOM     14  C   UNL     1     128.521  12.911 153.422  1.00  0.00     0.051 A 
ATOM     15  C   UNL     1     129.535  12.324 152.655  1.00  0.00     0.157 A 
ATOM     16  C   UNL     1     129.283  14.082 151.001  1.00  0.00     0.062 A 
ATOM     17  C   UNL     1     129.921  12.917 151.440  1.00  0.00     0.158 A 
BRANCH  15  18
ATOM     18  O   UNL     1     130.163  11.161 153.096  1.00  0.00    -0.504 OA
ATOM     19  H   UNL     1     130.013  10.269 152.637  1.00  0.00     0.293 HD
ENDBRANCH  15  18
BRANCH  17  20
ATOM     20  O   UNL     1     130.937  12.365 150.661  1.00  0.00    -0.504 OA
ATOM     21  H   UNL     1     131.909  12.396 150.943  1.00  0.00     0.293 HD
ENDBRANCH  17  20
ENDBRANCH   1  12
BRANCH   2  22
ATOM     22  O   UNL     1     125.522  14.738 150.784  1.00  0.00    -0.502 OA
ATOM     23  H   UNL     1     125.355  14.230 149.925  1.00  0.00     0.293 HD
ENDBRANCH   2  22
BRANCH   6  24
ATOM     24  O   UNL     1     124.819  19.821 149.356  1.00  0.00    -0.507 OA
ATOM     25  H   UNL     1     124.585  19.406 148.467  1.00  0.00     0.293 HD
ENDBRANCH   6  24
BRANCH   8  26
ATOM     26  O   UNL     1     128.835  21.769 151.083  1.00  0.00    -0.508 OA
ATOM     27  H   UNL     1     129.379  21.895 151.929  1.00  0.00     0.293 HD
ENDBRANCH   8  26
TORSDOF 6
ENDMDL
MODEL 9
REMARK VINA RESULT:    -4.187     14.753     16.746
REMARK INTER + INTRA:          -5.378
REMARK INTER:                  -5.250
REMARK INTRA:                  -0.128
REMARK UNBOUND:                -0.334
REMARK SMILES O=c1c(O)c(-c2ccc(O)c(O)c2)oc2cc(O)cc(O)c12
REMARK SMILES IDX 5 1 3 2 2 3 1 4 22 5 20 6 19 7 17 8 16 9 15 10 14 11 6 12
REMARK SMILES IDX 7 13 8 14 9 15 13 16 11 17 10 18 12 20 4 22 21 24 18 26
REMARK H PARENT 10 19 12 21 4 23 21 25 18 27
REMARK Flexibility Score: inf
ROOT
ATOM      1  C   UNL     1     126.048   7.437 137.962  1.00  0.00     0.180 A 
ATOM      2  C   UNL     1     125.760   6.103 137.625  1.00  0.00     0.208 A 
ATOM      3  C   UNL     1     126.345   5.070 138.374  1.00  0.00     0.238 A 
ATOM      4  O   UNL     1     126.126   3.878 138.034  1.00  0.00    -0.285 OA
ATOM      5  C   UNL     1     127.197   5.383 139.461  1.00  0.00     0.111 A 
ATOM      6  C   UNL     1     127.812   4.417 140.313  1.00  0.00     0.134 A 
ATOM      7  C   UNL     1     128.740   4.836 141.274  1.00  0.00     0.093 A 
ATOM      8  C   UNL     1     129.026   6.187 141.459  1.00  0.00     0.123 A 
ATOM      9  C   UNL     1     128.385   7.146 140.671  1.00  0.00     0.094 A 
ATOM     10  C   UNL     1     127.483   6.757 139.679  1.00  0.00     0.146 A 
ATOM     11  O   UNL     1     126.903   7.697 138.944  1.00  0.00    -0.452 OA
ENDROOT
BRANCH   1  12
ATOM     12  C   UNL     1     125.450   8.580 137.234  1.00  0.00     0.025 A 
ATOM     13  C   UNL     1     126.288   9.542 136.650  1.00  0.00     0.016 A 
ATOM     14  C   UNL     1     125.746  10.640 135.977  1.00  0.00     0.051 A 
ATOM     15  C   UNL     1     124.357  10.800 135.892  1.00  0.00     0.157 A 
ATOM     16  C   UNL     1     124.057   8.756 137.164  1.00  0.00     0.062 A 
ATOM     17  C   UNL     1     123.509   9.855 136.494  1.00  0.00     0.158 A 
BRANCH  15  18
ATOM     18  O   UNL     1     123.818  11.895 135.219  1.00  0.00    -0.504 OA
ATOM     19  H   UNL     1     122.948  12.323 135.512  1.00  0.00     0.293 HD
ENDBRANCH  15  18
BRANCH  17  20
ATOM     20  O   UNL     1     122.123   9.995 136.440  1.00  0.00    -0.504 OA
ATOM     21  H   UNL     1     121.669  10.609 135.776  1.00  0.00     0.293 HD
ENDBRANCH  17  20
ENDBRANCH   1  12
BRANCH   2  22
ATOM     22  O   UNL     1     124.934   5.816 136.535  1.00  0.00    -0.502 OA
ATOM     23  H   UNL     1     124.546   4.895 136.375  1.00  0.00     0.293 HD
ENDBRANCH   2  22
BRANCH   6  24
ATOM     24  O   UNL     1     127.528   3.050 140.275  1.00  0.00    -0.507 OA
ATOM     25  H   UNL     1     128.061   2.338 140.751  1.00  0.00     0.293 HD
ENDBRANCH   6  24
BRANCH   8  26
ATOM     26  O   UNL     1     129.943   6.570 142.436  1.00  0.00    -0.508 OA
ATOM     27  H   UNL     1     130.795   6.045 142.598  1.00  0.00     0.293 HD
ENDBRANCH   8  26
TORSDOF 6
ENDMDL
