MODEL 1
REMARK VINA RESULT:    -4.623      0.000      0.000
REMARK INTER + INTRA:         -17.067
REMARK INTER:                 -12.191
REMARK INTRA:                  -4.877
REMARK UNBOUND:                -4.877
REMARK SMILES CCCCCCCCCCCCCCCCCCCCCCCCCCCCCC(=O)[O-]
REMARK SMILES IDX 16 1 17 2 18 3 19 4 20 5 21 6 22 7 23 8 24 9 25 10 26 11
REMARK SMILES IDX 27 12 28 13 29 14 30 15 31 16 32 17 15 18 14 19 13 20 12 21
REMARK SMILES IDX 11 22 10 23 9 24 8 25 7 26 6 27 5 28 4 29 3 30 2 31 1 32
REMARK H PARENT
REMARK Flexibility Score: inf
ROOT
ATOM      1  C   UNL     1     -10.888   6.902 -10.836  1.00  0.00     0.000 C 
ENDROOT
BRANCH   1   2
ATOM      2  C   UNL     1     -12.356   6.510 -11.092  1.00  0.00     0.000 C 
BRANCH   2   3
ATOM      3  C   UNL     1     -12.953   5.530 -10.063  1.00  0.00     0.000 C 
BRANCH   3   4
ATOM      4  C   UNL     1     -11.912   4.787  -9.203  1.00  0.00     0.000 C 
BRANCH   4   5
ATOM      5  C   UNL     1     -12.323   3.341  -8.846  1.00  0.00     0.000 C 
BRANCH   5   6
ATOM      6  C   UNL     1     -13.123   2.617  -9.947  1.00  0.00     0.000 C 
BRANCH   6   7
ATOM      7  C   UNL     1     -12.278   1.875 -11.007  1.00  0.00     0.000 C 
BRANCH   7   8
ATOM      8  C   UNL     1     -12.038   2.640 -12.320  1.00  0.00     0.000 C 
BRANCH   8   9
ATOM      9  C   UNL     1     -10.665   3.331 -12.435  1.00  0.00     0.000 C 
BRANCH   9  10
ATOM     10  C   UNL     1     -10.212   3.589 -13.887  1.00  0.00     0.000 C 
BRANCH  10  11
ATOM     11  C   UNL     1      -8.975   2.761 -14.278  1.00  0.00     0.000 C 
BRANCH  11  12
ATOM     12  C   UNL     1      -9.260   1.245 -14.277  1.00  0.00     0.000 C 
BRANCH  12  13
ATOM     13  C   UNL     1     -10.025   0.758 -15.521  1.00  0.00     0.006 C 
BRANCH  13  14
ATOM     14  C   UNL     1      -9.149  -0.061 -16.478  1.00  0.00     0.053 C 
BRANCH  14  15
ATOM     15  C   UNL     1      -8.319   0.842 -17.336  1.00  0.00     0.041 C 
ATOM     16  O   UNL     1      -8.873   1.682 -18.093  1.00  0.00    -0.550 OA
ATOM     17  O   UNL     1      -6.932   0.782 -17.270  1.00  0.00    -0.550 OA
ENDBRANCH  14  15
ENDBRANCH  13  14
ENDBRANCH  12  13
ENDBRANCH  11  12
ENDBRANCH  10  11
ENDBRANCH   9  10
ENDBRANCH   8   9
ENDBRANCH   7   8
ENDBRANCH   6   7
ENDBRANCH   5   6
ENDBRANCH   4   5
ENDBRANCH   3   4
ENDBRANCH   2   3
ENDBRANCH   1   2
BRANCH   1  18
ATOM     18  C   UNL     1     -10.212   7.497 -12.080  1.00  0.00     0.000 C 
BRANCH  18  19
ATOM     19  C   UNL     1      -8.958   8.299 -11.710  1.00  0.00     0.000 C 
BRANCH  19  20
ATOM     20  C   UNL     1      -8.886   8.520 -10.193  1.00  0.00     0.000 C 
BRANCH  20  21
ATOM     21  C   UNL     1      -7.490   8.193  -9.642  1.00  0.00     0.000 C 
BRANCH  21  22
ATOM     22  C   UNL     1      -7.539   7.504  -8.265  1.00  0.00     0.000 C 
BRANCH  22  23
ATOM     23  C   UNL     1      -8.399   6.224  -8.209  1.00  0.00     0.000 C 
BRANCH  23  24
ATOM     24  C   UNL     1      -7.716   4.959  -8.761  1.00  0.00    -0.000 C 
BRANCH  24  25
ATOM     25  C   UNL     1      -8.225   4.497 -10.141  1.00  0.00    -0.000 C 
BRANCH  25  26
ATOM     26  C   UNL     1      -7.445   5.058 -11.343  1.00  0.00    -0.000 C 
BRANCH  26  27
ATOM     27  C   UNL     1      -5.947   4.724 -11.291  1.00  0.00    -0.000 C 
BRANCH  27  28
ATOM     28  C   UNL     1      -5.214   5.278 -12.520  1.00  0.00    -0.000 C 
BRANCH  28  29
ATOM     29  C   UNL     1      -5.416   6.795 -12.641  1.00  0.00    -0.000 C 
BRANCH  29  30
ATOM     30  C   UNL     1      -4.222   7.599 -12.103  1.00  0.00    -0.000 C 
BRANCH  30  31
ATOM     31  C   UNL     1      -3.100   7.758 -13.140  1.00  0.00    -0.003 C 
ATOM     32  C   UNL     1      -1.888   8.463 -12.532  1.00  0.00     0.004 C 
ENDBRANCH  30  31
ENDBRANCH  29  30
ENDBRANCH  28  29
ENDBRANCH  27  28
ENDBRANCH  26  27
ENDBRANCH  25  26
ENDBRANCH  24  25
ENDBRANCH  23  24
ENDBRANCH  22  23
ENDBRANCH  21  22
ENDBRANCH  20  21
ENDBRANCH  19  20
ENDBRANCH  18  19
ENDBRANCH   1  18
TORSDOF 28
ENDMDL
MODEL 2
REMARK VINA RESULT:    -4.612      3.126      6.883
REMARK INTER + INTRA:         -17.037
REMARK INTER:                 -12.447
REMARK INTRA:                  -4.590
REMARK UNBOUND:                -4.877
REMARK SMILES CCCCCCCCCCCCCCCCCCCCCCCCCCCCCC(=O)[O-]
REMARK SMILES IDX 16 1 17 2 18 3 19 4 20 5 21 6 22 7 23 8 24 9 25 10 26 11
REMARK SMILES IDX 27 12 28 13 29 14 30 15 31 16 32 17 15 18 14 19 13 20 12 21
REMARK SMILES IDX 11 22 10 23 9 24 8 25 7 26 6 27 5 28 4 29 3 30 2 31 1 32
REMARK H PARENT
REMARK Flexibility Score: inf
ROOT
ATOM      1  C   UNL     1     -11.483   6.534 -12.062  1.00  0.00     0.000 C 
ENDROOT
BRANCH   1   2
ATOM      2  C   UNL     1     -10.619   7.107 -10.923  1.00  0.00     0.000 C 
BRANCH   2   3
ATOM      3  C   UNL     1      -9.621   8.199 -11.357  1.00  0.00     0.000 C 
BRANCH   3   4
ATOM      4  C   UNL     1      -8.858   8.871 -10.198  1.00  0.00     0.000 C 
BRANCH   4   5
ATOM      5  C   UNL     1      -8.321   7.871  -9.149  1.00  0.00     0.000 C 
BRANCH   5   6
ATOM      6  C   UNL     1      -6.801   7.960  -8.906  1.00  0.00     0.000 C 
BRANCH   6   7
ATOM      7  C   UNL     1      -5.915   7.820 -10.164  1.00  0.00     0.000 C 
BRANCH   7   8
ATOM      8  C   UNL     1      -4.726   6.852 -10.036  1.00  0.00     0.000 C 
BRANCH   8   9
ATOM      9  C   UNL     1      -3.832   6.742 -11.286  1.00  0.00     0.000 C 
BRANCH   9  10
ATOM     10  C   UNL     1      -3.892   7.976 -12.211  1.00  0.00     0.000 C 
BRANCH  10  11
ATOM     11  C   UNL     1      -2.601   8.170 -13.026  1.00  0.00     0.000 C 
BRANCH  11  12
ATOM     12  C   UNL     1      -2.853   8.116 -14.547  1.00  0.00     0.000 C 
BRANCH  12  13
ATOM     13  C   UNL     1      -2.879   9.500 -15.220  1.00  0.00     0.006 C 
BRANCH  13  14
ATOM     14  C   UNL     1      -2.391   9.468 -16.673  1.00  0.00     0.053 C 
BRANCH  14  15
ATOM     15  C   UNL     1      -3.516   9.121 -17.599  1.00  0.00     0.041 C 
ATOM     16  O   UNL     1      -4.710   9.259 -17.224  1.00  0.00    -0.550 OA
ATOM     17  O   UNL     1      -3.244   8.681 -18.889  1.00  0.00    -0.550 OA
ENDBRANCH  14  15
ENDBRANCH  13  14
ENDBRANCH  12  13
ENDBRANCH  11  12
ENDBRANCH  10  11
ENDBRANCH   9  10
ENDBRANCH   8   9
ENDBRANCH   7   8
ENDBRANCH   6   7
ENDBRANCH   5   6
ENDBRANCH   4   5
ENDBRANCH   3   4
ENDBRANCH   2   3
ENDBRANCH   1   2
BRANCH   1  18
ATOM     18  C   UNL     1     -12.408   5.403 -11.587  1.00  0.00     0.000 C 
BRANCH  18  19
ATOM     19  C   UNL     1     -12.890   5.636 -10.150  1.00  0.00     0.000 C 
BRANCH  19  20
ATOM     20  C   UNL     1     -12.887   4.320  -9.359  1.00  0.00     0.000 C 
BRANCH  20  21
ATOM     21  C   UNL     1     -13.054   3.107 -10.286  1.00  0.00     0.000 C 
BRANCH  21  22
ATOM     22  C   UNL     1     -12.976   1.766  -9.530  1.00  0.00     0.000 C 
BRANCH  22  23
ATOM     23  C   UNL     1     -12.240   1.825  -8.175  1.00  0.00     0.000 C 
BRANCH  23  24
ATOM     24  C   UNL     1     -10.730   1.527  -8.244  1.00  0.00    -0.000 C 
BRANCH  24  25
ATOM     25  C   UNL     1      -9.817   2.714  -7.876  1.00  0.00    -0.000 C 
BRANCH  25  26
ATOM     26  C   UNL     1      -9.407   3.608  -9.060  1.00  0.00    -0.000 C 
BRANCH  26  27
ATOM     27  C   UNL     1      -9.357   2.848 -10.393  1.00  0.00    -0.000 C 
BRANCH  27  28
ATOM     28  C   UNL     1      -9.047   3.798 -11.558  1.00  0.00    -0.000 C 
BRANCH  28  29
ATOM     29  C   UNL     1      -7.907   4.760 -11.192  1.00  0.00    -0.000 C 
BRANCH  29  30
ATOM     30  C   UNL     1      -7.249   5.399 -12.425  1.00  0.00    -0.000 C 
BRANCH  30  31
ATOM     31  C   UNL     1      -7.910   4.964 -13.742  1.00  0.00    -0.003 C 
ATOM     32  C   UNL     1      -8.633   6.134 -14.405  1.00  0.00     0.004 C 
ENDBRANCH  30  31
ENDBRANCH  29  30
ENDBRANCH  28  29
ENDBRANCH  27  28
ENDBRANCH  26  27
ENDBRANCH  25  26
ENDBRANCH  24  25
ENDBRANCH  23  24
ENDBRANCH  22  23
ENDBRANCH  21  22
ENDBRANCH  20  21
ENDBRANCH  19  20
ENDBRANCH  18  19
ENDBRANCH   1  18
TORSDOF 28
ENDMDL
MODEL 3
REMARK VINA RESULT:    -4.611      2.276      3.749
REMARK INTER + INTRA:         -17.036
REMARK INTER:                 -11.836
REMARK INTRA:                  -5.201
REMARK UNBOUND:                -4.877
REMARK SMILES CCCCCCCCCCCCCCCCCCCCCCCCCCCCCC(=O)[O-]
REMARK SMILES IDX 16 1 17 2 18 3 19 4 20 5 21 6 22 7 23 8 24 9 25 10 26 11
REMARK SMILES IDX 27 12 28 13 29 14 30 15 31 16 32 17 15 18 14 19 13 20 12 21
REMARK SMILES IDX 11 22 10 23 9 24 8 25 7 26 6 27 5 28 4 29 3 30 2 31 1 32
REMARK H PARENT
REMARK Flexibility Score: inf
ROOT
ATOM      1  C   UNL     1     -11.688   4.759 -12.763  1.00  0.00     0.000 C 
ENDROOT
BRANCH   1   2
ATOM      2  C   UNL     1     -10.887   3.447 -12.865  1.00  0.00     0.000 C 
BRANCH   2   3
ATOM      3  C   UNL     1     -11.518   2.246 -12.135  1.00  0.00     0.000 C 
BRANCH   3   4
ATOM      4  C   UNL     1     -12.908   2.519 -11.528  1.00  0.00     0.000 C 
BRANCH   4   5
ATOM      5  C   UNL     1     -12.890   2.689  -9.992  1.00  0.00     0.000 C 
BRANCH   5   6
ATOM      6  C   UNL     1     -13.040   4.146  -9.511  1.00  0.00     0.000 C 
BRANCH   6   7
ATOM      7  C   UNL     1     -11.733   4.837  -9.060  1.00  0.00     0.000 C 
BRANCH   7   8
ATOM      8  C   UNL     1     -10.884   4.054  -8.044  1.00  0.00     0.000 C 
BRANCH   8   9
ATOM      9  C   UNL     1      -9.389   3.930  -8.396  1.00  0.00     0.000 C 
BRANCH   9  10
ATOM     10  C   UNL     1      -9.101   2.990  -9.585  1.00  0.00     0.000 C 
BRANCH  10  11
ATOM     11  C   UNL     1      -7.766   3.309 -10.283  1.00  0.00     0.000 C 
BRANCH  11  12
ATOM     12  C   UNL     1      -7.831   4.612 -11.107  1.00  0.00     0.000 C 
BRANCH  12  13
ATOM     13  C   UNL     1      -6.828   4.657 -12.273  1.00  0.00     0.006 C 
BRANCH  13  14
ATOM     14  C   UNL     1      -7.254   5.616 -13.392  1.00  0.00     0.053 C 
BRANCH  14  15
ATOM     15  C   UNL     1      -6.606   5.235 -14.687  1.00  0.00     0.041 C 
ATOM     16  O   UNL     1      -5.485   4.663 -14.690  1.00  0.00    -0.550 OA
ATOM     17  O   UNL     1      -7.261   5.479 -15.889  1.00  0.00    -0.550 OA
ENDBRANCH  14  15
ENDBRANCH  13  14
ENDBRANCH  12  13
ENDBRANCH  11  12
ENDBRANCH  10  11
ENDBRANCH   9  10
ENDBRANCH   8   9
ENDBRANCH   7   8
ENDBRANCH   6   7
ENDBRANCH   5   6
ENDBRANCH   4   5
ENDBRANCH   3   4
ENDBRANCH   2   3
ENDBRANCH   1   2
BRANCH   1  18
ATOM     18  C   UNL     1     -10.848   5.992 -13.129  1.00  0.00     0.000 C 
BRANCH  18  19
ATOM     19  C   UNL     1     -10.710   6.952 -11.941  1.00  0.00     0.000 C 
BRANCH  19  20
ATOM     20  C   UNL     1      -9.682   8.050 -12.249  1.00  0.00     0.000 C 
BRANCH  20  21
ATOM     21  C   UNL     1      -9.113   8.665 -10.962  1.00  0.00     0.000 C 
BRANCH  21  22
ATOM     22  C   UNL     1      -9.325   7.767  -9.729  1.00  0.00     0.000 C 
BRANCH  22  23
ATOM     23  C   UNL     1      -8.033   7.370  -8.983  1.00  0.00     0.000 C 
BRANCH  23  24
ATOM     24  C   UNL     1      -6.749   8.043  -9.507  1.00  0.00    -0.000 C 
BRANCH  24  25
ATOM     25  C   UNL     1      -5.444   7.293  -9.176  1.00  0.00    -0.000 C 
BRANCH  25  26
ATOM     26  C   UNL     1      -4.537   7.003 -10.386  1.00  0.00    -0.000 C 
BRANCH  26  27
ATOM     27  C   UNL     1      -4.925   7.814 -11.631  1.00  0.00    -0.000 C 
BRANCH  27  28
ATOM     28  C   UNL     1      -3.994   7.496 -12.809  1.00  0.00    -0.000 C 
BRANCH  28  29
ATOM     29  C   UNL     1      -2.522   7.555 -12.375  1.00  0.00    -0.000 C 
BRANCH  29  30
ATOM     30  C   UNL     1      -1.830   8.862 -12.795  1.00  0.00    -0.000 C 
BRANCH  30  31
ATOM     31  C   UNL     1      -2.516   9.537 -13.992  1.00  0.00    -0.003 C 
ATOM     32  C   UNL     1      -2.480   8.636 -15.225  1.00  0.00     0.004 C 
ENDBRANCH  30  31
ENDBRANCH  29  30
ENDBRANCH  28  29
ENDBRANCH  27  28
ENDBRANCH  26  27
ENDBRANCH  25  26
ENDBRANCH  24  25
ENDBRANCH  23  24
ENDBRANCH  22  23
ENDBRANCH  21  22
ENDBRANCH  20  21
ENDBRANCH  19  20
ENDBRANCH  18  19
ENDBRANCH   1  18
TORSDOF 28
ENDMDL
MODEL 4
REMARK VINA RESULT:    -4.594      2.519      4.810
REMARK INTER + INTRA:         -16.990
REMARK INTER:                 -12.082
REMARK INTRA:                  -4.909
REMARK UNBOUND:                -4.877
REMARK SMILES CCCCCCCCCCCCCCCCCCCCCCCCCCCCCC(=O)[O-]
REMARK SMILES IDX 16 1 17 2 18 3 19 4 20 5 21 6 22 7 23 8 24 9 25 10 26 11
REMARK SMILES IDX 27 12 28 13 29 14 30 15 31 16 32 17 15 18 14 19 13 20 12 21
REMARK SMILES IDX 11 22 10 23 9 24 8 25 7 26 6 27 5 28 4 29 3 30 2 31 1 32
REMARK H PARENT
REMARK Flexibility Score: inf
ROOT
ATOM      1  C   UNL     1      -8.549   8.559 -10.193  1.00  0.00     0.000 C 
ENDROOT
BRANCH   1   2
ATOM      2  C   UNL     1      -9.562   7.965 -11.190  1.00  0.00     0.000 C 
BRANCH   2   3
ATOM      3  C   UNL     1     -10.519   6.915 -10.591  1.00  0.00     0.000 C 
BRANCH   3   4
ATOM      4  C   UNL     1     -11.893   6.827 -11.283  1.00  0.00     0.000 C 
BRANCH   4   5
ATOM      5  C   UNL     1     -12.904   5.928 -10.538  1.00  0.00     0.000 C 
BRANCH   5   6
ATOM      6  C   UNL     1     -12.582   4.421 -10.599  1.00  0.00     0.000 C 
BRANCH   6   7
ATOM      7  C   UNL     1     -12.578   3.684  -9.241  1.00  0.00     0.000 C 
BRANCH   7   8
ATOM      8  C   UNL     1     -11.533   4.174  -8.223  1.00  0.00     0.000 C 
BRANCH   8   9
ATOM      9  C   UNL     1     -10.173   3.452  -8.281  1.00  0.00     0.000 C 
BRANCH   9  10
ATOM     10  C   UNL     1      -8.959   4.403  -8.330  1.00  0.00     0.000 C 
BRANCH  10  11
ATOM     11  C   UNL     1      -8.101   4.205  -9.593  1.00  0.00     0.000 C 
BRANCH  11  12
ATOM     12  C   UNL     1      -8.881   3.511 -10.729  1.00  0.00     0.000 C 
BRANCH  12  13
ATOM     13  C   UNL     1      -8.707   4.186 -12.101  1.00  0.00     0.006 C 
BRANCH  13  14
ATOM     14  C   UNL     1      -9.871   3.904 -13.059  1.00  0.00     0.053 C 
BRANCH  14  15
ATOM     15  C   UNL     1     -10.142   5.095 -13.924  1.00  0.00     0.041 C 
ATOM     16  O   UNL     1      -9.242   5.954 -14.120  1.00  0.00    -0.550 OA
ATOM     17  O   UNL     1     -11.377   5.236 -14.545  1.00  0.00    -0.550 OA
ENDBRANCH  14  15
ENDBRANCH  13  14
ENDBRANCH  12  13
ENDBRANCH  11  12
ENDBRANCH  10  11
ENDBRANCH   9  10
ENDBRANCH   8   9
ENDBRANCH   7   8
ENDBRANCH   6   7
ENDBRANCH   5   6
ENDBRANCH   4   5
ENDBRANCH   3   4
ENDBRANCH   2   3
ENDBRANCH   1   2
BRANCH   1  18
ATOM     18  C   UNL     1      -8.548   7.824  -8.845  1.00  0.00     0.000 C 
BRANCH  18  19
ATOM     19  C   UNL     1      -7.138   7.746  -8.246  1.00  0.00     0.000 C 
BRANCH  19  20
ATOM     20  C   UNL     1      -6.083   8.112  -9.299  1.00  0.00     0.000 C 
BRANCH  20  21
ATOM     21  C   UNL     1      -5.286   6.878  -9.748  1.00  0.00     0.000 C 
BRANCH  21  22
ATOM     22  C   UNL     1      -5.265   6.708 -11.279  1.00  0.00     0.000 C 
BRANCH  22  23
ATOM     23  C   UNL     1      -4.379   7.720 -12.034  1.00  0.00     0.000 C 
BRANCH  23  24
ATOM     24  C   UNL     1      -2.868   7.419 -11.991  1.00  0.00    -0.000 C 
BRANCH  24  25
ATOM     25  C   UNL     1      -1.979   8.463 -12.694  1.00  0.00    -0.000 C 
BRANCH  25  26
ATOM     26  C   UNL     1      -2.734   9.469 -13.581  1.00  0.00    -0.000 C 
BRANCH  26  27
ATOM     27  C   UNL     1      -2.162   9.559 -15.003  1.00  0.00    -0.000 C 
BRANCH  27  28
ATOM     28  C   UNL     1      -3.274   9.443 -16.054  1.00  0.00    -0.000 C 
BRANCH  28  29
ATOM     29  C   UNL     1      -3.051   8.219 -16.954  1.00  0.00    -0.000 C 
BRANCH  29  30
ATOM     30  C   UNL     1      -2.552   6.991 -16.176  1.00  0.00    -0.000 C 
BRANCH  30  31
ATOM     31  C   UNL     1      -3.581   5.851 -16.144  1.00  0.00    -0.003 C 
ATOM     32  C   UNL     1      -4.740   6.186 -15.206  1.00  0.00     0.004 C 
ENDBRANCH  30  31
ENDBRANCH  29  30
ENDBRANCH  28  29
ENDBRANCH  27  28
ENDBRANCH  26  27
ENDBRANCH  25  26
ENDBRANCH  24  25
ENDBRANCH  23  24
ENDBRANCH  22  23
ENDBRANCH  21  22
ENDBRANCH  20  21
ENDBRANCH  19  20
ENDBRANCH  18  19
ENDBRANCH   1  18
TORSDOF 28
ENDMDL
MODEL 5
REMARK VINA RESULT:    -4.585      3.155      7.532
REMARK INTER + INTRA:         -16.966
REMARK INTER:                 -12.891
REMARK INTRA:                  -4.075
REMARK UNBOUND:                -4.877
REMARK SMILES CCCCCCCCCCCCCCCCCCCCCCCCCCCCCC(=O)[O-]
REMARK SMILES IDX 16 1 17 2 18 3 19 4 20 5 21 6 22 7 23 8 24 9 25 10 26 11
REMARK SMILES IDX 27 12 28 13 29 14 30 15 31 16 32 17 15 18 14 19 13 20 12 21
REMARK SMILES IDX 11 22 10 23 9 24 8 25 7 26 6 27 5 28 4 29 3 30 2 31 1 32
REMARK H PARENT
REMARK Flexibility Score: inf
ROOT
ATOM      1  C   UNL     1      -8.915   8.252 -12.064  1.00  0.00     0.000 C 
ENDROOT
BRANCH   1   2
ATOM      2  C   UNL     1      -8.993   8.684 -10.587  1.00  0.00     0.000 C 
BRANCH   2   3
ATOM      3  C   UNL     1      -7.809   8.222  -9.714  1.00  0.00     0.000 C 
BRANCH   3   4
ATOM      4  C   UNL     1      -6.439   8.259 -10.417  1.00  0.00     0.000 C 
BRANCH   4   5
ATOM      5  C   UNL     1      -5.472   7.148  -9.947  1.00  0.00     0.000 C 
BRANCH   5   6
ATOM      6  C   UNL     1      -4.342   6.824 -10.945  1.00  0.00     0.000 C 
BRANCH   6   7
ATOM      7  C   UNL     1      -4.050   7.916 -11.999  1.00  0.00     0.000 C 
BRANCH   7   8
ATOM      8  C   UNL     1      -2.565   8.134 -12.335  1.00  0.00     0.000 C 
BRANCH   8   9
ATOM      9  C   UNL     1      -2.294   9.041 -13.552  1.00  0.00     0.000 C 
BRANCH   9  10
ATOM     10  C   UNL     1      -2.640   8.391 -14.908  1.00  0.00     0.000 C 
BRANCH  10  11
ATOM     11  C   UNL     1      -3.146   9.412 -15.943  1.00  0.00     0.000 C 
BRANCH  11  12
ATOM     12  C   UNL     1      -2.294   9.413 -17.230  1.00  0.00     0.000 C 
BRANCH  12  13
ATOM     13  C   UNL     1      -3.128   9.467 -18.523  1.00  0.00     0.006 C 
BRANCH  13  14
ATOM     14  C   UNL     1      -4.402   8.615 -18.449  1.00  0.00     0.053 C 
BRANCH  14  15
ATOM     15  C   UNL     1      -5.609   9.446 -18.759  1.00  0.00     0.041 C 
ATOM     16  O   UNL     1      -6.126   9.409 -19.906  1.00  0.00    -0.550 OA
ATOM     17  O   UNL     1      -6.184  10.232 -17.767  1.00  0.00    -0.550 OA
ENDBRANCH  14  15
ENDBRANCH  13  14
ENDBRANCH  12  13
ENDBRANCH  11  12
ENDBRANCH  10  11
ENDBRANCH   9  10
ENDBRANCH   8   9
ENDBRANCH   7   8
ENDBRANCH   6   7
ENDBRANCH   5   6
ENDBRANCH   4   5
ENDBRANCH   3   4
ENDBRANCH   2   3
ENDBRANCH   1   2
BRANCH   1  18
ATOM     18  C   UNL     1     -10.208   7.581 -12.550  1.00  0.00     0.000 C 
BRANCH  18  19
ATOM     19  C   UNL     1     -11.055   7.073 -11.377  1.00  0.00     0.000 C 
BRANCH  19  20
ATOM     20  C   UNL     1     -12.325   6.378 -11.888  1.00  0.00     0.000 C 
BRANCH  20  21
ATOM     21  C   UNL     1     -12.004   5.368 -13.001  1.00  0.00     0.000 C 
BRANCH  21  22
ATOM     22  C   UNL     1     -11.379   4.067 -12.462  1.00  0.00     0.000 C 
BRANCH  22  23
ATOM     23  C   UNL     1     -12.394   2.990 -12.026  1.00  0.00     0.000 C 
BRANCH  23  24
ATOM     24  C   UNL     1     -12.152   2.401 -10.622  1.00  0.00    -0.000 C 
BRANCH  24  25
ATOM     25  C   UNL     1     -12.973   3.056  -9.494  1.00  0.00    -0.000 C 
BRANCH  25  26
ATOM     26  C   UNL     1     -12.373   4.353  -8.922  1.00  0.00    -0.000 C 
BRANCH  26  27
ATOM     27  C   UNL     1     -10.975   4.149  -8.319  1.00  0.00    -0.000 C 
BRANCH  27  28
ATOM     28  C   UNL     1      -9.939   5.043  -9.012  1.00  0.00    -0.000 C 
BRANCH  28  29
ATOM     29  C   UNL     1      -8.541   4.825  -8.417  1.00  0.00    -0.000 C 
BRANCH  29  30
ATOM     30  C   UNL     1      -7.611   4.039  -9.355  1.00  0.00    -0.000 C 
BRANCH  30  31
ATOM     31  C   UNL     1      -8.219   3.825 -10.750  1.00  0.00    -0.003 C 
ATOM     32  C   UNL     1      -7.644   4.819 -11.757  1.00  0.00     0.004 C 
ENDBRANCH  30  31
ENDBRANCH  29  30
ENDBRANCH  28  29
ENDBRANCH  27  28
ENDBRANCH  26  27
ENDBRANCH  25  26
ENDBRANCH  24  25
ENDBRANCH  23  24
ENDBRANCH  22  23
ENDBRANCH  21  22
ENDBRANCH  20  21
ENDBRANCH  19  20
ENDBRANCH  18  19
ENDBRANCH   1  18
TORSDOF 28
ENDMDL
MODEL 6
REMARK VINA RESULT:    -4.585      3.478      4.550
REMARK INTER + INTRA:         -16.966
REMARK INTER:                 -12.369
REMARK INTRA:                  -4.597
REMARK UNBOUND:                -4.877
REMARK SMILES CCCCCCCCCCCCCCCCCCCCCCCCCCCCCC(=O)[O-]
REMARK SMILES IDX 16 1 17 2 18 3 19 4 20 5 21 6 22 7 23 8 24 9 25 10 26 11
REMARK SMILES IDX 27 12 28 13 29 14 30 15 31 16 32 17 15 18 14 19 13 20 12 21
REMARK SMILES IDX 11 22 10 23 9 24 8 25 7 26 6 27 5 28 4 29 3 30 2 31 1 32
REMARK H PARENT
REMARK Flexibility Score: inf
ROOT
ATOM      1  C   UNL     1      -8.779   8.647 -10.639  1.00  0.00     0.000 C 
ENDROOT
BRANCH   1   2
ATOM      2  C   UNL     1      -9.167   8.291 -12.087  1.00  0.00     0.000 C 
BRANCH   2   3
ATOM      3  C   UNL     1     -10.418   7.401 -12.221  1.00  0.00     0.000 C 
BRANCH   3   4
ATOM      4  C   UNL     1     -11.067   6.997 -10.883  1.00  0.00     0.000 C 
BRANCH   4   5
ATOM      5  C   UNL     1     -12.488   6.409 -11.037  1.00  0.00     0.000 C 
BRANCH   5   6
ATOM      6  C   UNL     1     -12.778   5.198 -10.126  1.00  0.00     0.000 C 
BRANCH   6   7
ATOM      7  C   UNL     1     -11.654   4.828  -9.132  1.00  0.00     0.000 C 
BRANCH   7   8
ATOM      8  C   UNL     1     -11.684   3.384  -8.604  1.00  0.00     0.000 C 
BRANCH   8   9
ATOM      9  C   UNL     1     -10.723   2.407  -9.309  1.00  0.00     0.000 C 
BRANCH   9  10
ATOM     10  C   UNL     1     -10.036   1.405  -8.358  1.00  0.00     0.000 C 
BRANCH  10  11
ATOM     11  C   UNL     1      -8.506   1.564  -8.334  1.00  0.00     0.000 C 
BRANCH  11  12
ATOM     12  C   UNL     1      -7.861   1.237  -9.697  1.00  0.00     0.000 C 
BRANCH  12  13
ATOM     13  C   UNL     1      -6.856   0.072  -9.642  1.00  0.00     0.006 C 
BRANCH  13  14
ATOM     14  C   UNL     1      -5.468   0.453 -10.172  1.00  0.00     0.053 C 
BRANCH  14  15
ATOM     15  C   UNL     1      -4.468  -0.611  -9.843  1.00  0.00     0.041 C 
ATOM     16  O   UNL     1      -3.317  -0.297  -9.441  1.00  0.00    -0.550 OA
ATOM     17  O   UNL     1      -4.822  -1.952  -9.943  1.00  0.00    -0.550 OA
ENDBRANCH  14  15
ENDBRANCH  13  14
ENDBRANCH  12  13
ENDBRANCH  11  12
ENDBRANCH  10  11
ENDBRANCH   9  10
ENDBRANCH   8   9
ENDBRANCH   7   8
ENDBRANCH   6   7
ENDBRANCH   5   6
ENDBRANCH   4   5
ENDBRANCH   3   4
ENDBRANCH   2   3
ENDBRANCH   1   2
BRANCH   1  18
ATOM     18  C   UNL     1      -7.272   8.505 -10.381  1.00  0.00     0.000 C 
BRANCH  18  19
ATOM     19  C   UNL     1      -6.992   7.792  -9.053  1.00  0.00     0.000 C 
BRANCH  19  20
ATOM     20  C   UNL     1      -8.282   7.191  -8.479  1.00  0.00     0.000 C 
BRANCH  20  21
ATOM     21  C   UNL     1      -8.157   5.673  -8.281  1.00  0.00     0.000 C 
BRANCH  21  22
ATOM     22  C   UNL     1      -7.363   4.989  -9.411  1.00  0.00     0.000 C 
BRANCH  22  23
ATOM     23  C   UNL     1      -8.157   4.751 -10.712  1.00  0.00     0.000 C 
BRANCH  23  24
ATOM     24  C   UNL     1      -7.354   4.963 -12.010  1.00  0.00    -0.000 C 
BRANCH  24  25
ATOM     25  C   UNL     1      -5.880   5.365 -11.802  1.00  0.00    -0.000 C 
BRANCH  25  26
ATOM     26  C   UNL     1      -4.849   4.342 -12.311  1.00  0.00    -0.000 C 
BRANCH  26  27
ATOM     27  C   UNL     1      -3.419   4.654 -11.846  1.00  0.00    -0.000 C 
BRANCH  27  28
ATOM     28  C   UNL     1      -2.716   5.604 -12.824  1.00  0.00    -0.000 C 
BRANCH  28  29
ATOM     29  C   UNL     1      -2.021   6.749 -12.073  1.00  0.00    -0.000 C 
BRANCH  29  30
ATOM     30  C   UNL     1      -2.746   8.094 -12.235  1.00  0.00    -0.000 C 
BRANCH  30  31
ATOM     31  C   UNL     1      -1.964   9.087 -13.107  1.00  0.00    -0.003 C 
ATOM     32  C   UNL     1      -2.391   8.987 -14.570  1.00  0.00     0.004 C 
ENDBRANCH  30  31
ENDBRANCH  29  30
ENDBRANCH  28  29
ENDBRANCH  27  28
ENDBRANCH  26  27
ENDBRANCH  25  26
ENDBRANCH  24  25
ENDBRANCH  23  24
ENDBRANCH  22  23
ENDBRANCH  21  22
ENDBRANCH  20  21
ENDBRANCH  19  20
ENDBRANCH  18  19
ENDBRANCH   1  18
TORSDOF 28
ENDMDL
MODEL 7
REMARK VINA RESULT:    -4.573      2.571      7.414
REMARK INTER + INTRA:         -16.935
REMARK INTER:                 -11.923
REMARK INTRA:                  -5.012
REMARK UNBOUND:                -4.877
REMARK SMILES CCCCCCCCCCCCCCCCCCCCCCCCCCCCCC(=O)[O-]
REMARK SMILES IDX 16 1 17 2 18 3 19 4 20 5 21 6 22 7 23 8 24 9 25 10 26 11
REMARK SMILES IDX 27 12 28 13 29 14 30 15 31 16 32 17 15 18 14 19 13 20 12 21
REMARK SMILES IDX 11 22 10 23 9 24 8 25 7 26 6 27 5 28 4 29 3 30 2 31 1 32
REMARK H PARENT
REMARK Flexibility Score: inf
ROOT
ATOM      1  C   UNL     1      -6.986   7.336  -9.171  1.00  0.00     0.000 C 
ENDROOT
BRANCH   1   2
ATOM      2  C   UNL     1      -6.300   8.515  -9.887  1.00  0.00     0.000 C 
BRANCH   2   3
ATOM      3  C   UNL     1      -5.529   8.135 -11.167  1.00  0.00     0.000 C 
BRANCH   3   4
ATOM      4  C   UNL     1      -5.576   6.637 -11.525  1.00  0.00     0.000 C 
BRANCH   4   5
ATOM      5  C   UNL     1      -4.180   5.984 -11.636  1.00  0.00     0.000 C 
BRANCH   5   6
ATOM      6  C   UNL     1      -3.025   6.853 -11.100  1.00  0.00     0.000 C 
BRANCH   6   7
ATOM      7  C   UNL     1      -1.904   7.173 -12.114  1.00  0.00     0.000 C 
BRANCH   7   8
ATOM      8  C   UNL     1      -1.750   8.658 -12.486  1.00  0.00     0.000 C 
BRANCH   8   9
ATOM      9  C   UNL     1      -2.813   9.205 -13.458  1.00  0.00     0.000 C 
BRANCH   9  10
ATOM     10  C   UNL     1      -2.316   9.359 -14.911  1.00  0.00     0.000 C 
BRANCH  10  11
ATOM     11  C   UNL     1      -2.937   8.324 -15.864  1.00  0.00     0.000 C 
BRANCH  11  12
ATOM     12  C   UNL     1      -4.022   7.470 -15.176  1.00  0.00     0.000 C 
BRANCH  12  13
ATOM     13  C   UNL     1      -3.797   5.953 -15.317  1.00  0.00     0.006 C 
BRANCH  13  14
ATOM     14  C   UNL     1      -2.314   5.575 -15.417  1.00  0.00     0.053 C 
BRANCH  14  15
ATOM     15  C   UNL     1      -2.004   4.417 -14.520  1.00  0.00     0.041 C 
ATOM     16  O   UNL     1      -0.846   4.273 -14.049  1.00  0.00    -0.550 OA
ATOM     17  O   UNL     1      -3.007   3.517 -14.176  1.00  0.00    -0.550 OA
ENDBRANCH  14  15
ENDBRANCH  13  14
ENDBRANCH  12  13
ENDBRANCH  11  12
ENDBRANCH  10  11
ENDBRANCH   9  10
ENDBRANCH   8   9
ENDBRANCH   7   8
ENDBRANCH   6   7
ENDBRANCH   5   6
ENDBRANCH   4   5
ENDBRANCH   3   4
ENDBRANCH   2   3
ENDBRANCH   1   2
BRANCH   1  18
ATOM     18  C   UNL     1      -8.517   7.455  -9.174  1.00  0.00     0.000 C 
BRANCH  18  19
ATOM     19  C   UNL     1      -8.991   8.603 -10.074  1.00  0.00     0.000 C 
BRANCH  19  20
ATOM     20  C   UNL     1      -9.892   8.072 -11.197  1.00  0.00     0.000 C 
BRANCH  20  21
ATOM     21  C   UNL     1      -9.682   6.568 -11.424  1.00  0.00     0.000 C 
BRANCH  21  22
ATOM     22  C   UNL     1     -10.975   5.842 -11.843  1.00  0.00     0.000 C 
BRANCH  22  23
ATOM     23  C   UNL     1     -12.273   6.442 -11.264  1.00  0.00     0.000 C 
BRANCH  23  24
ATOM     24  C   UNL     1     -12.863   5.678 -10.063  1.00  0.00    -0.000 C 
BRANCH  24  25
ATOM     25  C   UNL     1     -12.821   4.142 -10.189  1.00  0.00    -0.000 C 
BRANCH  25  26
ATOM     26  C   UNL     1     -12.261   3.404  -8.959  1.00  0.00    -0.000 C 
BRANCH  26  27
ATOM     27  C   UNL     1     -11.163   4.197  -8.235  1.00  0.00    -0.000 C 
BRANCH  27  28
ATOM     28  C   UNL     1      -9.870   3.379  -8.129  1.00  0.00    -0.000 C 
BRANCH  28  29
ATOM     29  C   UNL     1      -8.892   3.751  -9.254  1.00  0.00    -0.000 C 
BRANCH  29  30
ATOM     30  C   UNL     1      -8.972   2.792 -10.452  1.00  0.00    -0.000 C 
BRANCH  30  31
ATOM     31  C   UNL     1      -8.035   3.200 -11.600  1.00  0.00    -0.003 C 
ATOM     32  C   UNL     1      -8.161   2.235 -12.778  1.00  0.00     0.004 C 
ENDBRANCH  30  31
ENDBRANCH  29  30
ENDBRANCH  28  29
ENDBRANCH  27  28
ENDBRANCH  26  27
ENDBRANCH  25  26
ENDBRANCH  24  25
ENDBRANCH  23  24
ENDBRANCH  22  23
ENDBRANCH  21  22
ENDBRANCH  20  21
ENDBRANCH  19  20
ENDBRANCH  18  19
ENDBRANCH   1  18
TORSDOF 28
ENDMDL
MODEL 8
REMARK VINA RESULT:    -4.483      1.143      3.053
REMARK INTER + INTRA:         -16.699
REMARK INTER:                 -11.631
REMARK INTRA:                  -5.068
REMARK UNBOUND:                -4.877
REMARK SMILES CCCCCCCCCCCCCCCCCCCCCCCCCCCCCC(=O)[O-]
REMARK SMILES IDX 16 1 17 2 18 3 19 4 20 5 21 6 22 7 23 8 24 9 25 10 26 11
REMARK SMILES IDX 27 12 28 13 29 14 30 15 31 16 32 17 15 18 14 19 13 20 12 21
REMARK SMILES IDX 11 22 10 23 9 24 8 25 7 26 6 27 5 28 4 29 3 30 2 31 1 32
REMARK H PARENT
REMARK Flexibility Score: inf
ROOT
ATOM      1  C   UNL     1      -8.337   8.616 -10.787  1.00  0.00     0.000 C 
ENDROOT
BRANCH   1   2
ATOM      2  C   UNL     1      -9.375   8.443 -11.913  1.00  0.00     0.000 C 
BRANCH   2   3
ATOM      3  C   UNL     1      -9.511   7.005 -12.452  1.00  0.00     0.000 C 
BRANCH   3   4
ATOM      4  C   UNL     1     -10.929   6.411 -12.350  1.00  0.00     0.000 C 
BRANCH   4   5
ATOM      5  C   UNL     1     -11.648   6.749 -11.024  1.00  0.00     0.000 C 
BRANCH   5   6
ATOM      6  C   UNL     1     -12.752   5.749 -10.626  1.00  0.00     0.000 C 
BRANCH   6   7
ATOM      7  C   UNL     1     -12.455   4.893  -9.374  1.00  0.00     0.000 C 
BRANCH   7   8
ATOM      8  C   UNL     1     -12.706   3.382  -9.528  1.00  0.00     0.000 C 
BRANCH   8   9
ATOM      9  C   UNL     1     -11.712   2.643 -10.445  1.00  0.00     0.000 C 
BRANCH   9  10
ATOM     10  C   UNL     1     -12.293   2.262 -11.823  1.00  0.00     0.000 C 
BRANCH  10  11
ATOM     11  C   UNL     1     -11.404   2.727 -12.990  1.00  0.00     0.000 C 
BRANCH  11  12
ATOM     12  C   UNL     1      -9.917   2.828 -12.591  1.00  0.00     0.000 C 
BRANCH  12  13
ATOM     13  C   UNL     1      -9.000   1.876 -13.381  1.00  0.00     0.006 C 
BRANCH  13  14
ATOM     14  C   UNL     1      -9.679   1.284 -14.622  1.00  0.00     0.053 C 
BRANCH  14  15
ATOM     15  C   UNL     1      -9.092   1.865 -15.871  1.00  0.00     0.041 C 
ATOM     16  O   UNL     1      -9.750   2.691 -16.555  1.00  0.00    -0.550 OA
ATOM     17  O   UNL     1      -7.801   1.522 -16.257  1.00  0.00    -0.550 OA
ENDBRANCH  14  15
ENDBRANCH  13  14
ENDBRANCH  12  13
ENDBRANCH  11  12
ENDBRANCH  10  11
ENDBRANCH   9  10
ENDBRANCH   8   9
ENDBRANCH   7   8
ENDBRANCH   6   7
ENDBRANCH   5   6
ENDBRANCH   4   5
ENDBRANCH   3   4
ENDBRANCH   2   3
ENDBRANCH   1   2
BRANCH   1  18
ATOM     18  C   UNL     1      -8.885   8.208  -9.412  1.00  0.00     0.000 C 
BRANCH  18  19
ATOM     19  C   UNL     1      -8.087   7.045  -8.810  1.00  0.00     0.000 C 
BRANCH  19  20
ATOM     20  C   UNL     1      -8.989   5.820  -8.603  1.00  0.00     0.000 C 
BRANCH  20  21
ATOM     21  C   UNL     1      -8.701   4.728  -9.643  1.00  0.00     0.000 C 
BRANCH  21  22
ATOM     22  C   UNL     1      -7.381   3.981  -9.373  1.00  0.00     0.000 C 
BRANCH  22  23
ATOM     23  C   UNL     1      -6.958   2.988 -10.476  1.00  0.00     0.000 C 
BRANCH  23  24
ATOM     24  C   UNL     1      -6.179   3.614 -11.649  1.00  0.00    -0.000 C 
BRANCH  24  25
ATOM     25  C   UNL     1      -5.321   4.839 -11.276  1.00  0.00    -0.000 C 
BRANCH  25  26
ATOM     26  C   UNL     1      -5.719   6.149 -11.979  1.00  0.00    -0.000 C 
BRANCH  26  27
ATOM     27  C   UNL     1      -5.120   7.393 -11.307  1.00  0.00    -0.000 C 
BRANCH  27  28
ATOM     28  C   UNL     1      -3.589   7.307 -11.250  1.00  0.00    -0.000 C 
BRANCH  28  29
ATOM     29  C   UNL     1      -2.989   7.293 -12.664  1.00  0.00    -0.000 C 
BRANCH  29  30
ATOM     30  C   UNL     1      -1.897   8.358 -12.857  1.00  0.00    -0.000 C 
BRANCH  30  31
ATOM     31  C   UNL     1      -2.249   9.375 -13.953  1.00  0.00    -0.003 C 
ATOM     32  C   UNL     1      -2.633   8.669 -15.252  1.00  0.00     0.004 C 
ENDBRANCH  30  31
ENDBRANCH  29  30
ENDBRANCH  28  29
ENDBRANCH  27  28
ENDBRANCH  26  27
ENDBRANCH  25  26
ENDBRANCH  24  25
ENDBRANCH  23  24
ENDBRANCH  22  23
ENDBRANCH  21  22
ENDBRANCH  20  21
ENDBRANCH  19  20
ENDBRANCH  18  19
ENDBRANCH   1  18
TORSDOF 28
ENDMDL
MODEL 9
REMARK VINA RESULT:    -3.838      2.677      7.158
REMARK INTER + INTRA:         -14.997
REMARK INTER:                 -10.512
REMARK INTRA:                  -4.485
REMARK UNBOUND:                -4.877
REMARK SMILES CCCCCCCCCCCCCCCCCCCCCCCCCCCCCC(=O)[O-]
REMARK SMILES IDX 16 1 17 2 18 3 19 4 20 5 21 6 22 7 23 8 24 9 25 10 26 11
REMARK SMILES IDX 27 12 28 13 29 14 30 15 31 16 32 17 15 18 14 19 13 20 12 21
REMARK SMILES IDX 11 22 10 23 9 24 8 25 7 26 6 27 5 28 4 29 3 30 2 31 1 32
REMARK H PARENT
REMARK Flexibility Score: inf
ROOT
ATOM      1  C   UNL     1      -9.294   8.000 -12.385  1.00  0.00     0.000 C 
ENDROOT
BRANCH   1   2
ATOM      2  C   UNL     1      -9.792   7.829 -10.937  1.00  0.00     0.000 C 
BRANCH   2   3
ATOM      3  C   UNL     1      -8.990   8.614  -9.881  1.00  0.00     0.000 C 
BRANCH   3   4
ATOM      4  C   UNL     1      -7.483   8.741 -10.179  1.00  0.00     0.000 C 
BRANCH   4   5
ATOM      5  C   UNL     1      -6.594   7.881  -9.253  1.00  0.00     0.000 C 
BRANCH   5   6
ATOM      6  C   UNL     1      -5.393   7.220  -9.957  1.00  0.00     0.000 C 
BRANCH   6   7
ATOM      7  C   UNL     1      -5.166   7.643 -11.426  1.00  0.00     0.000 C 
BRANCH   7   8
ATOM      8  C   UNL     1      -4.607   6.549 -12.353  1.00  0.00     0.000 C 
BRANCH   8   9
ATOM      9  C   UNL     1      -3.162   6.775 -12.836  1.00  0.00     0.000 C 
BRANCH   9  10
ATOM     10  C   UNL     1      -2.401   7.866 -12.053  1.00  0.00     0.000 C 
BRANCH  10  11
ATOM     11  C   UNL     1      -1.813   8.953 -12.970  1.00  0.00     0.000 C 
BRANCH  11  12
ATOM     12  C   UNL     1      -2.847   9.491 -13.981  1.00  0.00     0.000 C 
BRANCH  12  13
ATOM     13  C   UNL     1      -2.432   9.299 -15.451  1.00  0.00     0.006 C 
BRANCH  13  14
ATOM     14  C   UNL     1      -3.618   9.364 -16.421  1.00  0.00     0.053 C 
BRANCH  14  15
ATOM     15  C   UNL     1      -3.322   8.590 -17.668  1.00  0.00     0.041 C 
ATOM     16  O   UNL     1      -3.075   7.358 -17.604  1.00  0.00    -0.550 OA
ATOM     17  O   UNL     1      -3.358   9.224 -18.904  1.00  0.00    -0.550 OA
ENDBRANCH  14  15
ENDBRANCH  13  14
ENDBRANCH  12  13
ENDBRANCH  11  12
ENDBRANCH  10  11
ENDBRANCH   9  10
ENDBRANCH   8   9
ENDBRANCH   7   8
ENDBRANCH   6   7
ENDBRANCH   5   6
ENDBRANCH   4   5
ENDBRANCH   3   4
ENDBRANCH   2   3
ENDBRANCH   1   2
BRANCH   1  18
ATOM     18  C   UNL     1     -10.402   7.762 -13.421  1.00  0.00     0.000 C 
BRANCH  18  19
ATOM     19  C   UNL     1     -11.166   6.461 -13.141  1.00  0.00     0.000 C 
BRANCH  19  20
ATOM     20  C   UNL     1     -12.667   6.739 -12.983  1.00  0.00     0.000 C 
BRANCH  20  21
ATOM     21  C   UNL     1     -13.125   6.547 -11.530  1.00  0.00     0.000 C 
BRANCH  21  22
ATOM     22  C   UNL     1     -12.707   5.182 -10.949  1.00  0.00     0.000 C 
BRANCH  22  23
ATOM     23  C   UNL     1     -12.363   5.193  -9.445  1.00  0.00     0.000 C 
BRANCH  23  24
ATOM     24  C   UNL     1     -11.696   3.906  -8.922  1.00  0.00    -0.000 C 
BRANCH  24  25
ATOM     25  C   UNL     1     -10.588   4.129  -7.875  1.00  0.00    -0.000 C 
BRANCH  25  26
ATOM     26  C   UNL     1      -9.307   4.790  -8.415  1.00  0.00    -0.000 C 
BRANCH  26  27
ATOM     27  C   UNL     1      -8.624   3.960  -9.512  1.00  0.00    -0.000 C 
BRANCH  27  28
ATOM     28  C   UNL     1      -8.120   4.858 -10.650  1.00  0.00    -0.000 C 
BRANCH  28  29
ATOM     29  C   UNL     1      -8.394   4.214 -12.018  1.00  0.00    -0.000 C 
BRANCH  29  30
ATOM     30  C   UNL     1      -9.659   3.342 -12.023  1.00  0.00    -0.000 C 
BRANCH  30  31
ATOM     31  C   UNL     1     -10.082   2.919 -13.438  1.00  0.00    -0.003 C 
ATOM     32  C   UNL     1      -9.316   1.677 -13.891  1.00  0.00     0.004 C 
ENDBRANCH  30  31
ENDBRANCH  29  30
ENDBRANCH  28  29
ENDBRANCH  27  28
ENDBRANCH  26  27
ENDBRANCH  25  26
ENDBRANCH  24  25
ENDBRANCH  23  24
ENDBRANCH  22  23
ENDBRANCH  21  22
ENDBRANCH  20  21
ENDBRANCH  19  20
ENDBRANCH  18  19
ENDBRANCH   1  18
TORSDOF 28
ENDMDL
