MODEL 1
REMARK VINA RESULT:    -2.627      0.000      0.000
REMARK INTER + INTRA:          -7.045
REMARK INTER:                  -4.777
REMARK INTRA:                  -2.267
REMARK UNBOUND:                -2.267
REMARK SMILES CCCCCCCCCCCCCCCC(=O)[O-]
REMARK SMILES IDX 9 1 10 2 11 3 12 4 13 5 14 6 15 7 16 8 17 9 18 10 8 11 7 12
REMARK SMILES IDX 6 13 5 14 4 15 3 16 2 17 1 18
REMARK H PARENT
REMARK Flexibility Score: inf
ROOT
ATOM      1  C   UNL     1       4.273  22.686   4.089  1.00  0.00     0.000 C 
ENDROOT
BRANCH   1   2
ATOM      2  C   UNL     1       4.265  24.223   4.086  1.00  0.00     0.000 C 
BRANCH   2   3
ATOM      3  C   UNL     1       5.673  24.820   3.931  1.00  0.00     0.000 C 
BRANCH   3   4
ATOM      4  C   UNL     1       6.638  24.226   4.964  1.00  0.00     0.000 C 
BRANCH   4   5
ATOM      5  C   UNL     1       6.493  24.932   6.321  1.00  0.00     0.000 C 
BRANCH   5   6
ATOM      6  C   UNL     1       6.087  23.970   7.449  1.00  0.00     0.006 C 
BRANCH   6   7
ATOM      7  C   UNL     1       6.625  22.549   7.235  1.00  0.00     0.053 C 
BRANCH   7   8
ATOM      8  C   UNL     1       6.177  21.649   8.342  1.00  0.00     0.041 C 
ATOM      9  O   UNL     1       7.003  21.237   9.199  1.00  0.00    -0.550 OA
ATOM     10  O   UNL     1       4.856  21.225   8.401  1.00  0.00    -0.550 OA
ENDBRANCH   7   8
ENDBRANCH   6   7
ENDBRANCH   5   6
ENDBRANCH   4   5
ENDBRANCH   3   4
ENDBRANCH   2   3
ENDBRANCH   1   2
BRANCH   1  11
ATOM     11  C   UNL     1       3.458  22.093   5.252  1.00  0.00     0.000 C 
BRANCH  11  12
ATOM     12  C   UNL     1       2.867  23.174   6.172  1.00  0.00    -0.000 C 
BRANCH  12  13
ATOM     13  C   UNL     1       1.446  22.833   6.651  1.00  0.00    -0.000 C 
BRANCH  13  14
ATOM     14  C   UNL     1       0.599  22.155   5.551  1.00  0.00    -0.000 C 
BRANCH  14  15
ATOM     15  C   UNL     1      -0.647  22.964   5.150  1.00  0.00    -0.000 C 
BRANCH  15  16
ATOM     16  C   UNL     1      -0.640  23.471   3.696  1.00  0.00    -0.000 C 
BRANCH  16  17
ATOM     17  C   UNL     1       0.722  23.300   2.987  1.00  0.00    -0.003 C 
ATOM     18  C   UNL     1       1.126  24.522   2.163  1.00  0.00     0.004 C 
ENDBRANCH  16  17
ENDBRANCH  15  16
ENDBRANCH  14  15
ENDBRANCH  13  14
ENDBRANCH  12  13
ENDBRANCH  11  12
ENDBRANCH   1  11
TORSDOF 14
ENDMDL
MODEL 2
REMARK VINA RESULT:    -2.422      3.261      4.709
REMARK INTER + INTRA:          -6.671
REMARK INTER:                  -4.566
REMARK INTRA:                  -2.105
REMARK UNBOUND:                -2.267
REMARK SMILES CCCCCCCCCCCCCCCC(=O)[O-]
REMARK SMILES IDX 9 1 10 2 11 3 12 4 13 5 14 6 15 7 16 8 17 9 18 10 8 11 7 12
REMARK SMILES IDX 6 13 5 14 4 15 3 16 2 17 1 18
REMARK H PARENT
REMARK Flexibility Score: inf
ROOT
ATOM      1  C   UNL     1       4.258  23.140   7.148  1.00  0.00     0.000 C 
ENDROOT
BRANCH   1   2
ATOM      2  C   UNL     1       5.746  23.527   7.169  1.00  0.00     0.000 C 
BRANCH   2   3
ATOM      3  C   UNL     1       6.054  24.737   6.274  1.00  0.00     0.000 C 
BRANCH   3   4
ATOM      4  C   UNL     1       6.963  24.338   5.105  1.00  0.00     0.000 C 
BRANCH   4   5
ATOM      5  C   UNL     1       6.400  24.851   3.771  1.00  0.00     0.000 C 
BRANCH   5   6
ATOM      6  C   UNL     1       4.871  24.991   3.787  1.00  0.00     0.006 C 
BRANCH   6   7
ATOM      7  C   UNL     1       4.240  24.744   2.410  1.00  0.00     0.053 C 
BRANCH   7   8
ATOM      8  C   UNL     1       3.200  25.779   2.120  1.00  0.00     0.041 C 
ATOM      9  O   UNL     1       3.528  26.988   1.984  1.00  0.00    -0.550 OA
ATOM     10  O   UNL     1       1.861  25.418   2.048  1.00  0.00    -0.550 OA
ENDBRANCH   7   8
ENDBRANCH   6   7
ENDBRANCH   5   6
ENDBRANCH   4   5
ENDBRANCH   3   4
ENDBRANCH   2   3
ENDBRANCH   1   2
BRANCH   1  11
ATOM     11  C   UNL     1       4.022  21.730   6.578  1.00  0.00     0.000 C 
BRANCH  11  12
ATOM     12  C   UNL     1       4.296  21.649   5.067  1.00  0.00    -0.000 C 
BRANCH  12  13
ATOM     13  C   UNL     1       3.008  21.532   4.236  1.00  0.00    -0.000 C 
BRANCH  13  14
ATOM     14  C   UNL     1       2.024  22.691   4.509  1.00  0.00    -0.000 C 
BRANCH  14  15
ATOM     15  C   UNL     1       0.556  22.333   4.211  1.00  0.00    -0.000 C 
BRANCH  15  16
ATOM     16  C   UNL     1      -0.318  22.130   5.461  1.00  0.00    -0.000 C 
BRANCH  16  17
ATOM     17  C   UNL     1       0.427  22.392   6.789  1.00  0.00    -0.003 C 
ATOM     18  C   UNL     1       0.489  21.162   7.693  1.00  0.00     0.004 C 
ENDBRANCH  16  17
ENDBRANCH  15  16
ENDBRANCH  14  15
ENDBRANCH  13  14
ENDBRANCH  12  13
ENDBRANCH  11  12
ENDBRANCH   1  11
TORSDOF 14
ENDMDL
MODEL 3
REMARK VINA RESULT:    -2.412      2.850      6.018
REMARK INTER + INTRA:          -6.654
REMARK INTER:                  -4.365
REMARK INTRA:                  -2.288
REMARK UNBOUND:                -2.267
REMARK SMILES CCCCCCCCCCCCCCCC(=O)[O-]
REMARK SMILES IDX 9 1 10 2 11 3 12 4 13 5 14 6 15 7 16 8 17 9 18 10 8 11 7 12
REMARK SMILES IDX 6 13 5 14 4 15 3 16 2 17 1 18
REMARK H PARENT
REMARK Flexibility Score: inf
ROOT
ATOM      1  C   UNL     1       3.562  23.154   6.777  1.00  0.00     0.000 C 
ENDROOT
BRANCH   1   2
ATOM      2  C   UNL     1       2.713  22.773   5.554  1.00  0.00     0.000 C 
BRANCH   2   3
ATOM      3  C   UNL     1       3.228  21.509   4.848  1.00  0.00     0.000 C 
BRANCH   3   4
ATOM      4  C   UNL     1       2.833  21.508   3.366  1.00  0.00     0.000 C 
BRANCH   4   5
ATOM      5  C   UNL     1       2.130  22.819   2.983  1.00  0.00     0.000 C 
BRANCH   5   6
ATOM      6  C   UNL     1       0.876  22.591   2.126  1.00  0.00     0.006 C 
BRANCH   6   7
ATOM      7  C   UNL     1      -0.364  22.262   2.969  1.00  0.00     0.053 C 
BRANCH   7   8
ATOM      8  C   UNL     1      -0.622  23.350   3.963  1.00  0.00     0.041 C 
ATOM      9  O   UNL     1      -0.649  23.089   5.195  1.00  0.00    -0.550 OA
ATOM     10  O   UNL     1      -0.882  24.642   3.527  1.00  0.00    -0.550 OA
ENDBRANCH   7   8
ENDBRANCH   6   7
ENDBRANCH   5   6
ENDBRANCH   4   5
ENDBRANCH   3   4
ENDBRANCH   2   3
ENDBRANCH   1   2
BRANCH   1  11
ATOM     11  C   UNL     1       4.680  22.135   7.061  1.00  0.00     0.000 C 
BRANCH  11  12
ATOM     12  C   UNL     1       6.067  22.791   7.167  1.00  0.00    -0.000 C 
BRANCH  12  13
ATOM     13  C   UNL     1       5.997  24.326   7.177  1.00  0.00    -0.000 C 
BRANCH  13  14
ATOM     14  C   UNL     1       6.578  24.952   5.890  1.00  0.00    -0.000 C 
BRANCH  14  15
ATOM     15  C   UNL     1       6.965  23.912   4.823  1.00  0.00    -0.000 C 
BRANCH  15  16
ATOM     16  C   UNL     1       5.946  23.761   3.679  1.00  0.00    -0.000 C 
BRANCH  16  17
ATOM     17  C   UNL     1       4.950  24.938   3.575  1.00  0.00    -0.003 C 
ATOM     18  C   UNL     1       4.853  25.518   2.165  1.00  0.00     0.004 C 
ENDBRANCH  16  17
ENDBRANCH  15  16
ENDBRANCH  14  15
ENDBRANCH  13  14
ENDBRANCH  12  13
ENDBRANCH  11  12
ENDBRANCH   1  11
TORSDOF 14
ENDMDL
MODEL 4
REMARK VINA RESULT:    -2.367      2.541      5.958
REMARK INTER + INTRA:          -6.571
REMARK INTER:                  -4.494
REMARK INTRA:                  -2.077
REMARK UNBOUND:                -2.267
REMARK SMILES CCCCCCCCCCCCCCCC(=O)[O-]
REMARK SMILES IDX 9 1 10 2 11 3 12 4 13 5 14 6 15 7 16 8 17 9 18 10 8 11 7 12
REMARK SMILES IDX 6 13 5 14 4 15 3 16 2 17 1 18
REMARK H PARENT
REMARK Flexibility Score: inf
ROOT
ATOM      1  C   UNL     1       4.186  24.431   3.320  1.00  0.00     0.000 C 
ENDROOT
BRANCH   1   2
ATOM      2  C   UNL     1       4.185  22.898   3.200  1.00  0.00     0.000 C 
BRANCH   2   3
ATOM      3  C   UNL     1       2.878  22.354   2.602  1.00  0.00     0.000 C 
BRANCH   3   4
ATOM      4  C   UNL     1       2.499  21.012   3.241  1.00  0.00     0.000 C 
BRANCH   4   5
ATOM      5  C   UNL     1       1.192  21.132   4.039  1.00  0.00     0.000 C 
BRANCH   5   6
ATOM      6  C   UNL     1       0.333  22.325   3.593  1.00  0.00     0.006 C 
BRANCH   6   7
ATOM      7  C   UNL     1      -0.369  23.019   4.768  1.00  0.00     0.053 C 
BRANCH   7   8
ATOM      8  C   UNL     1      -0.974  22.006   5.686  1.00  0.00     0.041 C 
ATOM      9  O   UNL     1      -1.888  21.242   5.275  1.00  0.00    -0.550 OA
ATOM     10  O   UNL     1      -0.565  21.936   7.012  1.00  0.00    -0.550 OA
ENDBRANCH   7   8
ENDBRANCH   6   7
ENDBRANCH   5   6
ENDBRANCH   4   5
ENDBRANCH   3   4
ENDBRANCH   2   3
ENDBRANCH   1   2
BRANCH   1  11
ATOM     11  C   UNL     1       5.565  24.991   3.713  1.00  0.00     0.000 C 
BRANCH  11  12
ATOM     12  C   UNL     1       6.286  24.117   4.751  1.00  0.00    -0.000 C 
BRANCH  12  13
ATOM     13  C   UNL     1       6.701  24.904   6.005  1.00  0.00    -0.000 C 
BRANCH  13  14
ATOM     14  C   UNL     1       6.176  24.259   7.307  1.00  0.00    -0.000 C 
BRANCH  14  15
ATOM     15  C   UNL     1       6.128  22.721   7.255  1.00  0.00    -0.000 C 
BRANCH  15  16
ATOM     16  C   UNL     1       4.815  22.105   7.771  1.00  0.00    -0.000 C 
BRANCH  16  17
ATOM     17  C   UNL     1       3.716  21.993   6.691  1.00  0.00    -0.003 C 
ATOM     18  C   UNL     1       2.796  23.212   6.644  1.00  0.00     0.004 C 
ENDBRANCH  16  17
ENDBRANCH  15  16
ENDBRANCH  14  15
ENDBRANCH  13  14
ENDBRANCH  12  13
ENDBRANCH  11  12
ENDBRANCH   1  11
TORSDOF 14
ENDMDL
MODEL 5
REMARK VINA RESULT:    -2.355      2.894      5.712
REMARK INTER + INTRA:          -6.549
REMARK INTER:                  -3.980
REMARK INTRA:                  -2.569
REMARK UNBOUND:                -2.267
REMARK SMILES CCCCCCCCCCCCCCCC(=O)[O-]
REMARK SMILES IDX 9 1 10 2 11 3 12 4 13 5 14 6 15 7 16 8 17 9 18 10 8 11 7 12
REMARK SMILES IDX 6 13 5 14 4 15 3 16 2 17 1 18
REMARK H PARENT
REMARK Flexibility Score: inf
ROOT
ATOM      1  C   UNL     1       4.972  24.528   4.403  1.00  0.00     0.000 C 
ENDROOT
BRANCH   1   2
ATOM      2  C   UNL     1       5.074  23.536   3.233  1.00  0.00     0.000 C 
BRANCH   2   3
ATOM      3  C   UNL     1       5.334  22.096   3.702  1.00  0.00     0.000 C 
BRANCH   3   4
ATOM      4  C   UNL     1       4.201  21.162   3.259  1.00  0.00     0.000 C 
BRANCH   4   5
ATOM      5  C   UNL     1       3.168  21.915   2.408  1.00  0.00     0.000 C 
BRANCH   5   6
ATOM      6  C   UNL     1       1.776  21.949   3.058  1.00  0.00     0.006 C 
BRANCH   6   7
ATOM      7  C   UNL     1       1.266  23.378   3.285  1.00  0.00     0.053 C 
BRANCH   7   8
ATOM      8  C   UNL     1      -0.147  23.356   3.776  1.00  0.00     0.041 C 
ATOM      9  O   UNL     1      -0.594  22.342   4.375  1.00  0.00    -0.550 OA
ATOM     10  O   UNL     1      -0.986  24.435   3.528  1.00  0.00    -0.550 OA
ENDBRANCH   7   8
ENDBRANCH   6   7
ENDBRANCH   5   6
ENDBRANCH   4   5
ENDBRANCH   3   4
ENDBRANCH   2   3
ENDBRANCH   1   2
BRANCH   1  11
ATOM     11  C   UNL     1       6.294  24.665   5.179  1.00  0.00     0.000 C 
BRANCH  11  12
ATOM     12  C   UNL     1       6.088  24.685   6.702  1.00  0.00    -0.000 C 
BRANCH  12  13
ATOM     13  C   UNL     1       6.943  23.635   7.430  1.00  0.00    -0.000 C 
BRANCH  13  14
ATOM     14  C   UNL     1       6.376  22.206   7.283  1.00  0.00    -0.000 C 
BRANCH  14  15
ATOM     15  C   UNL     1       4.952  22.050   7.846  1.00  0.00    -0.000 C 
BRANCH  15  16
ATOM     16  C   UNL     1       4.069  21.046   7.083  1.00  0.00    -0.000 C 
BRANCH  16  17
ATOM     17  C   UNL     1       2.745  21.652   6.565  1.00  0.00    -0.003 C 
ATOM     18  C   UNL     1       2.681  23.171   6.723  1.00  0.00     0.004 C 
ENDBRANCH  16  17
ENDBRANCH  15  16
ENDBRANCH  14  15
ENDBRANCH  13  14
ENDBRANCH  12  13
ENDBRANCH  11  12
ENDBRANCH   1  11
TORSDOF 14
ENDMDL
MODEL 6
REMARK VINA RESULT:    -2.309      2.897      4.057
REMARK INTER + INTRA:          -6.467
REMARK INTER:                  -4.763
REMARK INTRA:                  -1.704
REMARK UNBOUND:                -2.267
REMARK SMILES CCCCCCCCCCCCCCCC(=O)[O-]
REMARK SMILES IDX 9 1 10 2 11 3 12 4 13 5 14 6 15 7 16 8 17 9 18 10 8 11 7 12
REMARK SMILES IDX 6 13 5 14 4 15 3 16 2 17 1 18
REMARK H PARENT
REMARK Flexibility Score: inf
ROOT
ATOM      1  C   UNL     1       5.112  22.106   6.717  1.00  0.00     0.000 C 
ENDROOT
BRANCH   1   2
ATOM      2  C   UNL     1       5.279  23.388   7.549  1.00  0.00     0.000 C 
BRANCH   2   3
ATOM      3  C   UNL     1       5.997  24.504   6.774  1.00  0.00     0.000 C 
BRANCH   3   4
ATOM      4  C   UNL     1       6.992  23.920   5.764  1.00  0.00     0.000 C 
BRANCH   4   5
ATOM      5  C   UNL     1       6.732  24.471   4.354  1.00  0.00     0.000 C 
BRANCH   5   6
ATOM      6  C   UNL     1       5.257  24.831   4.120  1.00  0.00     0.006 C 
BRANCH   6   7
ATOM      7  C   UNL     1       4.958  25.175   2.655  1.00  0.00     0.053 C 
BRANCH   7   8
ATOM      8  C   UNL     1       3.489  25.370   2.454  1.00  0.00     0.041 C 
ATOM      9  O   UNL     1       3.027  26.518   2.218  1.00  0.00    -0.550 OA
ATOM     10  O   UNL     1       2.621  24.292   2.577  1.00  0.00    -0.550 OA
ENDBRANCH   7   8
ENDBRANCH   6   7
ENDBRANCH   5   6
ENDBRANCH   4   5
ENDBRANCH   3   4
ENDBRANCH   2   3
ENDBRANCH   1   2
BRANCH   1  11
ATOM     11  C   UNL     1       3.639  21.679   6.579  1.00  0.00     0.000 C 
BRANCH  11  12
ATOM     12  C   UNL     1       2.769  22.762   5.921  1.00  0.00    -0.000 C 
BRANCH  12  13
ATOM     13  C   UNL     1       1.635  23.249   6.838  1.00  0.00    -0.000 C 
BRANCH  13  14
ATOM     14  C   UNL     1       0.596  22.144   7.130  1.00  0.00    -0.000 C 
BRANCH  14  15
ATOM     15  C   UNL     1      -0.662  22.236   6.248  1.00  0.00    -0.000 C 
BRANCH  15  16
ATOM     16  C   UNL     1      -0.584  21.433   4.937  1.00  0.00    -0.000 C 
BRANCH  16  17
ATOM     17  C   UNL     1      -0.328  22.307   3.689  1.00  0.00    -0.003 C 
ATOM     18  C   UNL     1      -0.640  23.785   3.919  1.00  0.00     0.004 C 
ENDBRANCH  16  17
ENDBRANCH  15  16
ENDBRANCH  14  15
ENDBRANCH  13  14
ENDBRANCH  12  13
ENDBRANCH  11  12
ENDBRANCH   1  11
TORSDOF 14
ENDMDL
MODEL 7
REMARK VINA RESULT:    -2.274      3.186      4.608
REMARK INTER + INTRA:          -6.403
REMARK INTER:                  -4.364
REMARK INTRA:                  -2.040
REMARK UNBOUND:                -2.267
REMARK SMILES CCCCCCCCCCCCCCCC(=O)[O-]
REMARK SMILES IDX 9 1 10 2 11 3 12 4 13 5 14 6 15 7 16 8 17 9 18 10 8 11 7 12
REMARK SMILES IDX 6 13 5 14 4 15 3 16 2 17 1 18
REMARK H PARENT
REMARK Flexibility Score: inf
ROOT
ATOM      1  C   UNL     1       4.875  23.405   7.542  1.00  0.00     0.000 C 
ENDROOT
BRANCH   1   2
ATOM      2  C   UNL     1       6.047  24.297   7.100  1.00  0.00     0.000 C 
BRANCH   2   3
ATOM      3  C   UNL     1       5.981  24.662   5.609  1.00  0.00     0.000 C 
BRANCH   3   4
ATOM      4  C   UNL     1       6.341  23.456   4.733  1.00  0.00     0.000 C 
BRANCH   4   5
ATOM      5  C   UNL     1       5.297  23.251   3.624  1.00  0.00     0.000 C 
BRANCH   5   6
ATOM      6  C   UNL     1       3.958  23.936   3.937  1.00  0.00     0.006 C 
BRANCH   6   7
ATOM      7  C   UNL     1       3.008  23.953   2.732  1.00  0.00     0.053 C 
BRANCH   7   8
ATOM      8  C   UNL     1       2.808  25.353   2.245  1.00  0.00     0.041 C 
ATOM      9  O   UNL     1       1.645  25.812   2.093  1.00  0.00    -0.550 OA
ATOM     10  O   UNL     1       3.906  26.136   1.912  1.00  0.00    -0.550 OA
ENDBRANCH   7   8
ENDBRANCH   6   7
ENDBRANCH   5   6
ENDBRANCH   4   5
ENDBRANCH   3   4
ENDBRANCH   2   3
ENDBRANCH   1   2
BRANCH   1  11
ATOM     11  C   UNL     1       5.330  21.992   7.951  1.00  0.00     0.000 C 
BRANCH  11  12
ATOM     12  C   UNL     1       4.228  20.937   7.760  1.00  0.00    -0.000 C 
BRANCH  12  13
ATOM     13  C   UNL     1       3.359  21.206   6.520  1.00  0.00    -0.000 C 
BRANCH  13  14
ATOM     14  C   UNL     1       1.866  21.389   6.875  1.00  0.00    -0.000 C 
BRANCH  14  15
ATOM     15  C   UNL     1       1.324  22.790   6.541  1.00  0.00    -0.000 C 
BRANCH  15  16
ATOM     16  C   UNL     1       0.417  22.845   5.298  1.00  0.00    -0.000 C 
BRANCH  16  17
ATOM     17  C   UNL     1       0.032  21.453   4.749  1.00  0.00    -0.003 C 
ATOM     18  C   UNL     1       0.622  21.170   3.369  1.00  0.00     0.004 C 
ENDBRANCH  16  17
ENDBRANCH  15  16
ENDBRANCH  14  15
ENDBRANCH  13  14
ENDBRANCH  12  13
ENDBRANCH  11  12
ENDBRANCH   1  11
TORSDOF 14
ENDMDL
MODEL 8
REMARK VINA RESULT:    -2.239      1.197      2.797
REMARK INTER + INTRA:          -6.339
REMARK INTER:                  -4.567
REMARK INTRA:                  -1.772
REMARK UNBOUND:                -2.267
REMARK SMILES CCCCCCCCCCCCCCCC(=O)[O-]
REMARK SMILES IDX 9 1 10 2 11 3 12 4 13 5 14 6 15 7 16 8 17 9 18 10 8 11 7 12
REMARK SMILES IDX 6 13 5 14 4 15 3 16 2 17 1 18
REMARK H PARENT
REMARK Flexibility Score: inf
ROOT
ATOM      1  C   UNL     1       2.425  23.193   2.262  1.00  0.00     0.000 C 
ENDROOT
BRANCH   1   2
ATOM      2  C   UNL     1       3.434  24.287   2.648  1.00  0.00     0.000 C 
BRANCH   2   3
ATOM      3  C   UNL     1       4.594  23.746   3.499  1.00  0.00     0.000 C 
BRANCH   3   4
ATOM      4  C   UNL     1       4.509  24.268   4.938  1.00  0.00     0.000 C 
BRANCH   4   5
ATOM      5  C   UNL     1       5.909  24.542   5.508  1.00  0.00     0.000 C 
BRANCH   5   6
ATOM      6  C   UNL     1       6.016  24.207   7.003  1.00  0.00     0.006 C 
BRANCH   6   7
ATOM      7  C   UNL     1       4.851  23.340   7.499  1.00  0.00     0.053 C 
BRANCH   7   8
ATOM      8  C   UNL     1       5.360  22.044   8.044  1.00  0.00     0.041 C 
ATOM      9  O   UNL     1       4.574  21.072   8.209  1.00  0.00    -0.550 OA
ATOM     10  O   UNL     1       6.692  21.922   8.419  1.00  0.00    -0.550 OA
ENDBRANCH   7   8
ENDBRANCH   6   7
ENDBRANCH   5   6
ENDBRANCH   4   5
ENDBRANCH   3   4
ENDBRANCH   2   3
ENDBRANCH   1   2
BRANCH   1  11
ATOM     11  C   UNL     1       0.965  23.640   2.455  1.00  0.00     0.000 C 
BRANCH  11  12
ATOM     12  C   UNL     1      -0.018  22.458   2.477  1.00  0.00    -0.000 C 
BRANCH  12  13
ATOM     13  C   UNL     1      -1.247  22.725   3.362  1.00  0.00    -0.000 C 
BRANCH  13  14
ATOM     14  C   UNL     1      -1.626  21.505   4.230  1.00  0.00    -0.000 C 
BRANCH  14  15
ATOM     15  C   UNL     1      -0.891  21.461   5.582  1.00  0.00    -0.000 C 
BRANCH  15  16
ATOM     16  C   UNL     1      -0.153  22.761   5.950  1.00  0.00    -0.000 C 
BRANCH  16  17
ATOM     17  C   UNL     1       1.279  22.531   6.482  1.00  0.00    -0.003 C 
ATOM     18  C   UNL     1       2.092  21.571   5.616  1.00  0.00     0.004 C 
ENDBRANCH  16  17
ENDBRANCH  15  16
ENDBRANCH  14  15
ENDBRANCH  13  14
ENDBRANCH  12  13
ENDBRANCH  11  12
ENDBRANCH   1  11
TORSDOF 14
ENDMDL
MODEL 9
REMARK VINA RESULT:    -0.636      2.888      6.274
REMARK INTER + INTRA:          -3.424
REMARK INTER:                  -0.995
REMARK INTRA:                  -2.428
REMARK UNBOUND:                -2.267
REMARK SMILES CCCCCCCCCCCCCCCC(=O)[O-]
REMARK SMILES IDX 9 1 10 2 11 3 12 4 13 5 14 6 15 7 16 8 17 9 18 10 8 11 7 12
REMARK SMILES IDX 6 13 5 14 4 15 3 16 2 17 1 18
REMARK H PARENT
REMARK Flexibility Score: inf
ROOT
ATOM      1  C   UNL     1       4.037  24.248   3.685  1.00  0.00     0.000 C 
ENDROOT
BRANCH   1   2
ATOM      2  C   UNL     1       4.097  22.713   3.626  1.00  0.00     0.000 C 
BRANCH   2   3
ATOM      3  C   UNL     1       3.585  22.053   4.916  1.00  0.00     0.000 C 
BRANCH   3   4
ATOM      4  C   UNL     1       2.996  23.098   5.871  1.00  0.00     0.000 C 
BRANCH   4   5
ATOM      5  C   UNL     1       1.625  22.649   6.400  1.00  0.00     0.000 C 
BRANCH   5   6
ATOM      6  C   UNL     1       1.003  21.525   5.558  1.00  0.00     0.006 C 
BRANCH   6   7
ATOM      7  C   UNL     1      -0.331  21.935   4.919  1.00  0.00     0.053 C 
BRANCH   7   8
ATOM      8  C   UNL     1      -0.145  23.138   4.050  1.00  0.00     0.041 C 
ATOM      9  O   UNL     1      -0.751  24.211   4.314  1.00  0.00    -0.550 OA
ATOM     10  O   UNL     1       0.658  23.062   2.919  1.00  0.00    -0.550 OA
ENDBRANCH   7   8
ENDBRANCH   6   7
ENDBRANCH   5   6
ENDBRANCH   4   5
ENDBRANCH   3   4
ENDBRANCH   2   3
ENDBRANCH   1   2
BRANCH   1  11
ATOM     11  C   UNL     1       5.371  24.906   3.288  1.00  0.00     0.000 C 
BRANCH  11  12
ATOM     12  C   UNL     1       6.493  24.629   4.302  1.00  0.00    -0.000 C 
BRANCH  12  13
ATOM     13  C   UNL     1       6.065  24.915   5.751  1.00  0.00    -0.000 C 
BRANCH  13  14
ATOM     14  C   UNL     1       6.626  23.875   6.747  1.00  0.00    -0.000 C 
BRANCH  14  15
ATOM     15  C   UNL     1       7.063  22.559   6.080  1.00  0.00    -0.000 C 
BRANCH  15  16
ATOM     16  C   UNL     1       6.762  21.294   6.904  1.00  0.00    -0.000 C 
BRANCH  16  17
ATOM     17  C   UNL     1       5.981  21.574   8.207  1.00  0.00    -0.003 C 
ATOM     18  C   UNL     1       4.623  20.875   8.253  1.00  0.00     0.004 C 
ENDBRANCH  16  17
ENDBRANCH  15  16
ENDBRANCH  14  15
ENDBRANCH  13  14
ENDBRANCH  12  13
ENDBRANCH  11  12
ENDBRANCH   1  11
TORSDOF 14
ENDMDL
