MODEL 1
REMARK VINA RESULT:    -5.906      0.000      0.000
REMARK INTER + INTRA:         -12.447
REMARK INTER:                 -11.430
REMARK INTRA:                  -1.016
REMARK UNBOUND:                -1.016
REMARK SMILES CCCCCCCCCCCCCCCCCC(=O)[O-]
REMARK SMILES IDX 10 1 11 2 12 3 13 4 14 5 15 6 16 7 17 8 18 9 19 10 20 11
REMARK SMILES IDX 9 12 8 13 7 14 6 15 5 16 4 17 3 18 2 19 1 20
REMARK H PARENT
REMARK Flexibility Score: inf
ROOT
ATOM      1  C   UNL     1      38.744  54.471  60.762  1.00  0.00     0.000 C 
ENDROOT
BRANCH   1   2
ATOM      2  C   UNL     1      40.056  53.854  61.276  1.00  0.00     0.000 C 
BRANCH   2   3
ATOM      3  C   UNL     1      41.188  53.904  60.232  1.00  0.00     0.000 C 
BRANCH   3   4
ATOM      4  C   UNL     1      42.306  54.922  60.530  1.00  0.00     0.000 C 
BRANCH   4   5
ATOM      5  C   UNL     1      42.907  55.619  59.294  1.00  0.00     0.000 C 
BRANCH   5   6
ATOM      6  C   UNL     1      43.792  56.836  59.633  1.00  0.00     0.000 C 
BRANCH   6   7
ATOM      7  C   UNL     1      42.981  58.135  59.761  1.00  0.00     0.006 C 
BRANCH   7   8
ATOM      8  C   UNL     1      43.061  58.961  58.475  1.00  0.00     0.053 C 
BRANCH   8   9
ATOM      9  C   UNL     1      41.688  59.258  57.956  1.00  0.00     0.041 C 
ATOM     10  O   UNL     1      41.457  60.345  57.363  1.00  0.00    -0.550 OA
ATOM     11  O   UNL     1      40.680  58.311  58.077  1.00  0.00    -0.550 OA
ENDBRANCH   8   9
ENDBRANCH   7   8
ENDBRANCH   6   7
ENDBRANCH   5   6
ENDBRANCH   4   5
ENDBRANCH   3   4
ENDBRANCH   2   3
ENDBRANCH   1   2
BRANCH   1  12
ATOM     12  C   UNL     1      38.890  55.953  60.373  1.00  0.00     0.000 C 
BRANCH  12  13
ATOM     13  C   UNL     1      37.710  56.542  59.579  1.00  0.00    -0.000 C 
BRANCH  13  14
ATOM     14  C   UNL     1      36.394  55.783  59.804  1.00  0.00    -0.000 C 
BRANCH  14  15
ATOM     15  C   UNL     1      35.933  55.089  58.514  1.00  0.00    -0.000 C 
BRANCH  15  16
ATOM     16  C   UNL     1      35.317  53.705  58.775  1.00  0.00    -0.000 C 
BRANCH  16  17
ATOM     17  C   UNL     1      35.836  52.633  57.800  1.00  0.00    -0.000 C 
BRANCH  17  18
ATOM     18  C   UNL     1      35.157  51.270  58.007  1.00  0.00    -0.000 C 
BRANCH  18  19
ATOM     19  C   UNL     1      35.849  50.142  57.228  1.00  0.00    -0.003 C 
ATOM     20  C   UNL     1      34.876  49.008  56.922  1.00  0.00     0.004 C 
ENDBRANCH  18  19
ENDBRANCH  17  18
ENDBRANCH  16  17
ENDBRANCH  15  16
ENDBRANCH  14  15
ENDBRANCH  13  14
ENDBRANCH  12  13
ENDBRANCH   1  12
TORSDOF 16
ENDMDL
MODEL 2
REMARK VINA RESULT:    -5.858      1.482      1.952
REMARK INTER + INTRA:         -12.354
REMARK INTER:                 -11.339
REMARK INTRA:                  -1.016
REMARK UNBOUND:                -1.016
REMARK SMILES CCCCCCCCCCCCCCCCCC(=O)[O-]
REMARK SMILES IDX 10 1 11 2 12 3 13 4 14 5 15 6 16 7 17 8 18 9 19 10 20 11
REMARK SMILES IDX 9 12 8 13 7 14 6 15 5 16 4 17 3 18 2 19 1 20
REMARK H PARENT
REMARK Flexibility Score: inf
ROOT
ATOM      1  C   UNL     1      38.726  56.615  60.555  1.00  0.00     0.000 C 
ENDROOT
BRANCH   1   2
ATOM      2  C   UNL     1      40.198  56.306  60.234  1.00  0.00     0.000 C 
BRANCH   2   3
ATOM      3  C   UNL     1      40.539  54.810  60.377  1.00  0.00     0.000 C 
BRANCH   3   4
ATOM      4  C   UNL     1      42.038  54.495  60.540  1.00  0.00     0.000 C 
BRANCH   4   5
ATOM      5  C   UNL     1      42.970  55.203  59.537  1.00  0.00     0.000 C 
BRANCH   5   6
ATOM      6  C   UNL     1      43.777  56.367  60.151  1.00  0.00     0.000 C 
BRANCH   6   7
ATOM      7  C   UNL     1      44.058  57.486  59.136  1.00  0.00     0.006 C 
BRANCH   7   8
ATOM      8  C   UNL     1      42.965  57.543  58.065  1.00  0.00     0.053 C 
BRANCH   8   9
ATOM      9  C   UNL     1      42.252  58.858  58.114  1.00  0.00     0.041 C 
ATOM     10  O   UNL     1      42.904  59.928  58.254  1.00  0.00    -0.550 OA
ATOM     11  O   UNL     1      40.874  58.909  57.948  1.00  0.00    -0.550 OA
ENDBRANCH   8   9
ENDBRANCH   7   8
ENDBRANCH   6   7
ENDBRANCH   5   6
ENDBRANCH   4   5
ENDBRANCH   3   4
ENDBRANCH   2   3
ENDBRANCH   1   2
BRANCH   1  12
ATOM     12  C   UNL     1      37.761  55.528  60.046  1.00  0.00     0.000 C 
BRANCH  12  13
ATOM     13  C   UNL     1      36.356  56.027  59.663  1.00  0.00    -0.000 C 
BRANCH  13  14
ATOM     14  C   UNL     1      35.641  55.103  58.665  1.00  0.00    -0.000 C 
BRANCH  14  15
ATOM     15  C   UNL     1      35.955  53.629  58.960  1.00  0.00    -0.000 C 
BRANCH  15  16
ATOM     16  C   UNL     1      35.608  52.703  57.782  1.00  0.00    -0.000 C 
BRANCH  16  17
ATOM     17  C   UNL     1      34.745  51.503  58.208  1.00  0.00    -0.000 C 
BRANCH  17  18
ATOM     18  C   UNL     1      33.239  51.795  58.107  1.00  0.00    -0.000 C 
BRANCH  18  19
ATOM     19  C   UNL     1      32.377  50.573  58.456  1.00  0.00    -0.003 C 
ATOM     20  C   UNL     1      31.113  50.988  59.204  1.00  0.00     0.004 C 
ENDBRANCH  18  19
ENDBRANCH  17  18
ENDBRANCH  16  17
ENDBRANCH  15  16
ENDBRANCH  14  15
ENDBRANCH  13  14
ENDBRANCH  12  13
ENDBRANCH   1  12
TORSDOF 16
ENDMDL
MODEL 3
REMARK VINA RESULT:    -5.800      1.187      2.645
REMARK INTER + INTRA:         -12.241
REMARK INTER:                 -10.992
REMARK INTRA:                  -1.249
REMARK UNBOUND:                -1.016
REMARK SMILES CCCCCCCCCCCCCCCCCC(=O)[O-]
REMARK SMILES IDX 10 1 11 2 12 3 13 4 14 5 15 6 16 7 17 8 18 9 19 10 20 11
REMARK SMILES IDX 9 12 8 13 7 14 6 15 5 16 4 17 3 18 2 19 1 20
REMARK H PARENT
REMARK Flexibility Score: inf
ROOT
ATOM      1  C   UNL     1      41.271  54.632  60.015  1.00  0.00     0.000 C 
ENDROOT
BRANCH   1   2
ATOM      2  C   UNL     1      42.648  54.956  60.616  1.00  0.00     0.000 C 
BRANCH   2   3
ATOM      3  C   UNL     1      43.533  55.787  59.666  1.00  0.00     0.000 C 
BRANCH   3   4
ATOM      4  C   UNL     1      44.172  57.038  60.298  1.00  0.00     0.000 C 
BRANCH   4   5
ATOM      5  C   UNL     1      45.062  57.870  59.354  1.00  0.00     0.000 C 
BRANCH   5   6
ATOM      6  C   UNL     1      44.281  58.583  58.230  1.00  0.00     0.000 C 
BRANCH   6   7
ATOM      7  C   UNL     1      43.056  59.345  58.758  1.00  0.00     0.006 C 
BRANCH   7   8
ATOM      8  C   UNL     1      41.904  59.298  57.751  1.00  0.00     0.053 C 
BRANCH   8   9
ATOM      9  C   UNL     1      40.744  58.539  58.317  1.00  0.00     0.041 C 
ATOM     10  O   UNL     1      40.857  57.939  59.419  1.00  0.00    -0.550 OA
ATOM     11  O   UNL     1      39.522  58.542  57.656  1.00  0.00    -0.550 OA
ENDBRANCH   8   9
ENDBRANCH   7   8
ENDBRANCH   6   7
ENDBRANCH   5   6
ENDBRANCH   4   5
ENDBRANCH   3   4
ENDBRANCH   2   3
ENDBRANCH   1   2
BRANCH   1  12
ATOM     12  C   UNL     1      40.401  53.763  60.943  1.00  0.00     0.000 C 
BRANCH  12  13
ATOM     13  C   UNL     1      38.893  54.072  60.908  1.00  0.00    -0.000 C 
BRANCH  13  14
ATOM     14  C   UNL     1      38.584  55.573  61.005  1.00  0.00    -0.000 C 
BRANCH  14  15
ATOM     15  C   UNL     1      37.980  56.096  59.693  1.00  0.00    -0.000 C 
BRANCH  15  16
ATOM     16  C   UNL     1      36.456  56.280  59.776  1.00  0.00    -0.000 C 
BRANCH  16  17
ATOM     17  C   UNL     1      35.702  55.449  58.724  1.00  0.00    -0.000 C 
BRANCH  17  18
ATOM     18  C   UNL     1      35.798  53.937  58.988  1.00  0.00    -0.000 C 
BRANCH  18  19
ATOM     19  C   UNL     1      34.981  53.111  57.984  1.00  0.00    -0.003 C 
ATOM     20  C   UNL     1      35.400  51.644  58.011  1.00  0.00     0.004 C 
ENDBRANCH  18  19
ENDBRANCH  17  18
ENDBRANCH  16  17
ENDBRANCH  15  16
ENDBRANCH  14  15
ENDBRANCH  13  14
ENDBRANCH  12  13
ENDBRANCH   1  12
TORSDOF 16
ENDMDL
MODEL 4
REMARK VINA RESULT:    -5.693      1.311      2.774
REMARK INTER + INTRA:         -12.035
REMARK INTER:                 -10.817
REMARK INTRA:                  -1.218
REMARK UNBOUND:                -1.016
REMARK SMILES CCCCCCCCCCCCCCCCCC(=O)[O-]
REMARK SMILES IDX 10 1 11 2 12 3 13 4 14 5 15 6 16 7 17 8 18 9 19 10 20 11
REMARK SMILES IDX 9 12 8 13 7 14 6 15 5 16 4 17 3 18 2 19 1 20
REMARK H PARENT
REMARK Flexibility Score: inf
ROOT
ATOM      1  C   UNL     1      41.248  54.970  59.840  1.00  0.00     0.000 C 
ENDROOT
BRANCH   1   2
ATOM      2  C   UNL     1      42.669  54.860  60.417  1.00  0.00     0.000 C 
BRANCH   2   3
ATOM      3  C   UNL     1      43.469  56.171  60.290  1.00  0.00     0.000 C 
BRANCH   3   4
ATOM      4  C   UNL     1      43.072  57.064  59.099  1.00  0.00     0.000 C 
BRANCH   4   5
ATOM      5  C   UNL     1      42.599  58.483  59.471  1.00  0.00     0.000 C 
BRANCH   5   6
ATOM      6  C   UNL     1      43.426  59.608  58.814  1.00  0.00     0.000 C 
BRANCH   6   7
ATOM      7  C   UNL     1      42.543  60.721  58.229  1.00  0.00     0.006 C 
BRANCH   7   8
ATOM      8  C   UNL     1      41.695  60.195  57.068  1.00  0.00     0.053 C 
BRANCH   8   9
ATOM      9  C   UNL     1      40.434  60.991  56.938  1.00  0.00     0.041 C 
ATOM     10  O   UNL     1      40.395  62.186  57.334  1.00  0.00    -0.550 OA
ATOM     11  O   UNL     1      39.318  60.431  56.328  1.00  0.00    -0.550 OA
ENDBRANCH   8   9
ENDBRANCH   7   8
ENDBRANCH   6   7
ENDBRANCH   5   6
ENDBRANCH   4   5
ENDBRANCH   3   4
ENDBRANCH   2   3
ENDBRANCH   1   2
BRANCH   1  12
ATOM     12  C   UNL     1      40.217  54.136  60.622  1.00  0.00     0.000 C 
BRANCH  12  13
ATOM     13  C   UNL     1      38.937  54.888  61.029  1.00  0.00    -0.000 C 
BRANCH  13  14
ATOM     14  C   UNL     1      38.963  56.374  60.641  1.00  0.00    -0.000 C 
BRANCH  14  15
ATOM     15  C   UNL     1      37.950  56.667  59.523  1.00  0.00    -0.000 C 
BRANCH  15  16
ATOM     16  C   UNL     1      36.539  56.154  59.854  1.00  0.00    -0.000 C 
BRANCH  16  17
ATOM     17  C   UNL     1      35.940  55.301  58.722  1.00  0.00    -0.000 C 
BRANCH  17  18
ATOM     18  C   UNL     1      35.933  53.800  59.056  1.00  0.00    -0.000 C 
BRANCH  18  19
ATOM     19  C   UNL     1      34.928  53.012  58.204  1.00  0.00    -0.003 C 
ATOM     20  C   UNL     1      35.420  51.590  57.949  1.00  0.00     0.004 C 
ENDBRANCH  18  19
ENDBRANCH  17  18
ENDBRANCH  16  17
ENDBRANCH  15  16
ENDBRANCH  14  15
ENDBRANCH  13  14
ENDBRANCH  12  13
ENDBRANCH   1  12
TORSDOF 16
ENDMDL
MODEL 5
REMARK VINA RESULT:    -5.676      3.337      8.428
REMARK INTER + INTRA:         -12.002
REMARK INTER:                 -10.400
REMARK INTRA:                  -1.602
REMARK UNBOUND:                -1.016
REMARK SMILES CCCCCCCCCCCCCCCCCC(=O)[O-]
REMARK SMILES IDX 10 1 11 2 12 3 13 4 14 5 15 6 16 7 17 8 18 9 19 10 20 11
REMARK SMILES IDX 9 12 8 13 7 14 6 15 5 16 4 17 3 18 2 19 1 20
REMARK H PARENT
REMARK Flexibility Score: inf
ROOT
ATOM      1  C   UNL     1      41.278  54.364  59.949  1.00  0.00     0.000 C 
ENDROOT
BRANCH   1   2
ATOM      2  C   UNL     1      40.384  53.801  61.065  1.00  0.00     0.000 C 
BRANCH   2   3
ATOM      3  C   UNL     1      38.920  54.270  60.952  1.00  0.00     0.000 C 
BRANCH   3   4
ATOM      4  C   UNL     1      38.724  55.637  60.269  1.00  0.00     0.000 C 
BRANCH   4   5
ATOM      5  C   UNL     1      37.260  56.101  60.137  1.00  0.00     0.000 C 
BRANCH   5   6
ATOM      6  C   UNL     1      36.567  55.616  58.846  1.00  0.00     0.000 C 
BRANCH   6   7
ATOM      7  C   UNL     1      35.599  54.450  59.102  1.00  0.00     0.006 C 
BRANCH   7   8
ATOM      8  C   UNL     1      36.231  53.114  58.703  1.00  0.00     0.053 C 
BRANCH   8   9
ATOM      9  C   UNL     1      35.197  52.198  58.125  1.00  0.00     0.041 C 
ATOM     10  O   UNL     1      34.011  52.596  57.974  1.00  0.00    -0.550 OA
ATOM     11  O   UNL     1      35.556  50.925  57.701  1.00  0.00    -0.550 OA
ENDBRANCH   8   9
ENDBRANCH   7   8
ENDBRANCH   6   7
ENDBRANCH   5   6
ENDBRANCH   4   5
ENDBRANCH   3   4
ENDBRANCH   2   3
ENDBRANCH   1   2
BRANCH   1  12
ATOM     12  C   UNL     1      42.617  54.913  60.473  1.00  0.00     0.000 C 
BRANCH  12  13
ATOM     13  C   UNL     1      42.907  56.383  60.119  1.00  0.00    -0.000 C 
BRANCH  13  14
ATOM     14  C   UNL     1      42.656  56.707  58.639  1.00  0.00    -0.000 C 
BRANCH  14  15
ATOM     15  C   UNL     1      41.681  57.884  58.492  1.00  0.00    -0.000 C 
BRANCH  15  16
ATOM     16  C   UNL     1      42.361  59.152  57.949  1.00  0.00    -0.000 C 
BRANCH  16  17
ATOM     17  C   UNL     1      42.987  60.010  59.063  1.00  0.00    -0.000 C 
BRANCH  17  18
ATOM     18  C   UNL     1      44.483  60.275  58.833  1.00  0.00    -0.000 C 
BRANCH  18  19
ATOM     19  C   UNL     1      45.369  59.122  59.326  1.00  0.00    -0.003 C 
ATOM     20  C   UNL     1      45.996  58.371  58.155  1.00  0.00     0.004 C 
ENDBRANCH  18  19
ENDBRANCH  17  18
ENDBRANCH  16  17
ENDBRANCH  15  16
ENDBRANCH  14  15
ENDBRANCH  13  14
ENDBRANCH  12  13
ENDBRANCH   1  12
TORSDOF 16
ENDMDL
MODEL 6
REMARK VINA RESULT:    -5.676      3.223      8.261
REMARK INTER + INTRA:         -12.001
REMARK INTER:                 -10.360
REMARK INTRA:                  -1.641
REMARK UNBOUND:                -1.016
REMARK SMILES CCCCCCCCCCCCCCCCCC(=O)[O-]
REMARK SMILES IDX 10 1 11 2 12 3 13 4 14 5 15 6 16 7 17 8 18 9 19 10 20 11
REMARK SMILES IDX 9 12 8 13 7 14 6 15 5 16 4 17 3 18 2 19 1 20
REMARK H PARENT
REMARK Flexibility Score: inf
ROOT
ATOM      1  C   UNL     1      41.617  54.786  59.718  1.00  0.00     0.000 C 
ENDROOT
BRANCH   1   2
ATOM      2  C   UNL     1      40.730  54.002  60.698  1.00  0.00     0.000 C 
BRANCH   2   3
ATOM      3  C   UNL     1      39.266  54.484  60.697  1.00  0.00     0.000 C 
BRANCH   3   4
ATOM      4  C   UNL     1      39.079  55.999  60.487  1.00  0.00     0.000 C 
BRANCH   4   5
ATOM      5  C   UNL     1      37.942  56.393  59.524  1.00  0.00     0.000 C 
BRANCH   5   6
ATOM      6  C   UNL     1      36.562  55.830  59.925  1.00  0.00     0.000 C 
BRANCH   6   7
ATOM      7  C   UNL     1      35.941  54.958  58.823  1.00  0.00     0.006 C 
BRANCH   7   8
ATOM      8  C   UNL     1      36.157  53.471  59.112  1.00  0.00     0.053 C 
BRANCH   8   9
ATOM      9  C   UNL     1      35.372  52.631  58.153  1.00  0.00     0.041 C 
ATOM     10  O   UNL     1      35.913  51.645  57.585  1.00  0.00    -0.550 OA
ATOM     11  O   UNL     1      34.028  52.902  57.931  1.00  0.00    -0.550 OA
ENDBRANCH   8   9
ENDBRANCH   7   8
ENDBRANCH   6   7
ENDBRANCH   5   6
ENDBRANCH   4   5
ENDBRANCH   3   4
ENDBRANCH   2   3
ENDBRANCH   1   2
BRANCH   1  12
ATOM     12  C   UNL     1      42.912  55.308  60.368  1.00  0.00     0.000 C 
BRANCH  12  13
ATOM     13  C   UNL     1      43.791  56.189  59.462  1.00  0.00    -0.000 C 
BRANCH  13  14
ATOM     14  C   UNL     1      44.383  57.403  60.193  1.00  0.00    -0.000 C 
BRANCH  14  15
ATOM     15  C   UNL     1      45.467  58.082  59.342  1.00  0.00    -0.000 C 
BRANCH  15  16
ATOM     16  C   UNL     1      44.983  59.396  58.708  1.00  0.00    -0.000 C 
BRANCH  16  17
ATOM     17  C   UNL     1      43.744  59.973  59.415  1.00  0.00    -0.000 C 
BRANCH  17  18
ATOM     18  C   UNL     1      42.657  60.423  58.425  1.00  0.00    -0.000 C 
BRANCH  18  19
ATOM     19  C   UNL     1      42.046  59.248  57.647  1.00  0.00    -0.003 C 
ATOM     20  C   UNL     1      41.138  58.409  58.542  1.00  0.00     0.004 C 
ENDBRANCH  18  19
ENDBRANCH  17  18
ENDBRANCH  16  17
ENDBRANCH  15  16
ENDBRANCH  14  15
ENDBRANCH  13  14
ENDBRANCH  12  13
ENDBRANCH   1  12
TORSDOF 16
ENDMDL
MODEL 7
REMARK VINA RESULT:    -5.665      1.856      3.929
REMARK INTER + INTRA:         -11.980
REMARK INTER:                 -10.675
REMARK INTRA:                  -1.305
REMARK UNBOUND:                -1.016
REMARK SMILES CCCCCCCCCCCCCCCCCC(=O)[O-]
REMARK SMILES IDX 10 1 11 2 12 3 13 4 14 5 15 6 16 7 17 8 18 9 19 10 20 11
REMARK SMILES IDX 9 12 8 13 7 14 6 15 5 16 4 17 3 18 2 19 1 20
REMARK H PARENT
REMARK Flexibility Score: inf
ROOT
ATOM      1  C   UNL     1      42.458  55.105  60.284  1.00  0.00     0.000 C 
ENDROOT
BRANCH   1   2
ATOM      2  C   UNL     1      43.056  55.893  59.108  1.00  0.00     0.000 C 
BRANCH   2   3
ATOM      3  C   UNL     1      43.367  57.359  59.467  1.00  0.00     0.000 C 
BRANCH   3   4
ATOM      4  C   UNL     1      42.401  58.397  58.864  1.00  0.00     0.000 C 
BRANCH   4   5
ATOM      5  C   UNL     1      40.937  57.933  58.734  1.00  0.00     0.000 C 
BRANCH   5   6
ATOM      6  C   UNL     1      40.104  58.771  57.741  1.00  0.00     0.000 C 
BRANCH   6   7
ATOM      7  C   UNL     1      40.825  60.057  57.308  1.00  0.00     0.006 C 
BRANCH   7   8
ATOM      8  C   UNL     1      39.908  60.941  56.459  1.00  0.00     0.053 C 
BRANCH   8   9
ATOM      9  C   UNL     1      40.622  62.190  56.045  1.00  0.00     0.041 C 
ATOM     10  O   UNL     1      41.050  62.994  56.915  1.00  0.00    -0.550 OA
ATOM     11  O   UNL     1      40.864  62.439  54.699  1.00  0.00    -0.550 OA
ENDBRANCH   8   9
ENDBRANCH   7   8
ENDBRANCH   6   7
ENDBRANCH   5   6
ENDBRANCH   4   5
ENDBRANCH   3   4
ENDBRANCH   2   3
ENDBRANCH   1   2
BRANCH   1  12
ATOM     12  C   UNL     1      41.208  54.297  59.892  1.00  0.00     0.000 C 
BRANCH  12  13
ATOM     13  C   UNL     1      40.338  53.820  61.069  1.00  0.00    -0.000 C 
BRANCH  13  14
ATOM     14  C   UNL     1      38.881  54.296  60.973  1.00  0.00    -0.000 C 
BRANCH  14  15
ATOM     15  C   UNL     1      38.809  55.827  60.878  1.00  0.00    -0.000 C 
BRANCH  15  16
ATOM     16  C   UNL     1      38.013  56.307  59.653  1.00  0.00    -0.000 C 
BRANCH  16  17
ATOM     17  C   UNL     1      36.493  56.147  59.836  1.00  0.00    -0.000 C 
BRANCH  17  18
ATOM     18  C   UNL     1      35.853  55.296  58.728  1.00  0.00    -0.000 C 
BRANCH  18  19
ATOM     19  C   UNL     1      35.941  53.790  59.016  1.00  0.00    -0.003 C 
ATOM     20  C   UNL     1      34.903  53.015  58.211  1.00  0.00     0.004 C 
ENDBRANCH  18  19
ENDBRANCH  17  18
ENDBRANCH  16  17
ENDBRANCH  15  16
ENDBRANCH  14  15
ENDBRANCH  13  14
ENDBRANCH  12  13
ENDBRANCH   1  12
TORSDOF 16
ENDMDL
MODEL 8
REMARK VINA RESULT:    -5.650      2.191      3.534
REMARK INTER + INTRA:         -11.951
REMARK INTER:                 -10.348
REMARK INTRA:                  -1.603
REMARK UNBOUND:                -1.016
REMARK SMILES CCCCCCCCCCCCCCCCCC(=O)[O-]
REMARK SMILES IDX 10 1 11 2 12 3 13 4 14 5 15 6 16 7 17 8 18 9 19 10 20 11
REMARK SMILES IDX 9 12 8 13 7 14 6 15 5 16 4 17 3 18 2 19 1 20
REMARK H PARENT
REMARK Flexibility Score: inf
ROOT
ATOM      1  C   UNL     1      41.783  54.558  60.612  1.00  0.00     0.000 C 
ENDROOT
BRANCH   1   2
ATOM      2  C   UNL     1      42.690  54.934  59.429  1.00  0.00     0.000 C 
BRANCH   2   3
ATOM      3  C   UNL     1      42.915  56.454  59.308  1.00  0.00     0.000 C 
BRANCH   3   4
ATOM      4  C   UNL     1      42.038  57.162  58.259  1.00  0.00     0.000 C 
BRANCH   4   5
ATOM      5  C   UNL     1      41.844  58.675  58.479  1.00  0.00     0.000 C 
BRANCH   5   6
ATOM      6  C   UNL     1      42.962  59.332  59.315  1.00  0.00     0.000 C 
BRANCH   6   7
ATOM      7  C   UNL     1      44.053  59.969  58.440  1.00  0.00     0.006 C 
BRANCH   7   8
ATOM      8  C   UNL     1      45.247  59.025  58.278  1.00  0.00     0.053 C 
BRANCH   8   9
ATOM      9  C   UNL     1      46.021  58.934  59.556  1.00  0.00     0.041 C 
ATOM     10  O   UNL     1      46.067  57.847  60.192  1.00  0.00    -0.550 OA
ATOM     11  O   UNL     1      46.736  60.032  60.016  1.00  0.00    -0.550 OA
ENDBRANCH   8   9
ENDBRANCH   7   8
ENDBRANCH   6   7
ENDBRANCH   5   6
ENDBRANCH   4   5
ENDBRANCH   3   4
ENDBRANCH   2   3
ENDBRANCH   1   2
BRANCH   1  12
ATOM     12  C   UNL     1      40.376  54.115  60.172  1.00  0.00     0.000 C 
BRANCH  12  13
ATOM     13  C   UNL     1      39.211  54.812  60.898  1.00  0.00    -0.000 C 
BRANCH  13  14
ATOM     14  C   UNL     1      39.151  56.323  60.628  1.00  0.00    -0.000 C 
BRANCH  14  15
ATOM     15  C   UNL     1      38.150  56.640  59.506  1.00  0.00    -0.000 C 
BRANCH  15  16
ATOM     16  C   UNL     1      36.698  56.329  59.904  1.00  0.00    -0.000 C 
BRANCH  16  17
ATOM     17  C   UNL     1      35.946  55.533  58.822  1.00  0.00    -0.000 C 
BRANCH  17  18
ATOM     18  C   UNL     1      35.896  54.028  59.127  1.00  0.00    -0.000 C 
BRANCH  18  19
ATOM     19  C   UNL     1      35.061  53.247  58.102  1.00  0.00    -0.003 C 
ATOM     20  C   UNL     1      35.491  51.784  58.043  1.00  0.00     0.004 C 
ENDBRANCH  18  19
ENDBRANCH  17  18
ENDBRANCH  16  17
ENDBRANCH  15  16
ENDBRANCH  14  15
ENDBRANCH  13  14
ENDBRANCH  12  13
ENDBRANCH   1  12
TORSDOF 16
ENDMDL
MODEL 9
REMARK VINA RESULT:    -5.578      3.325      7.645
REMARK INTER + INTRA:         -11.812
REMARK INTER:                  -9.870
REMARK INTRA:                  -1.942
REMARK UNBOUND:                -1.016
REMARK SMILES CCCCCCCCCCCCCCCCCC(=O)[O-]
REMARK SMILES IDX 10 1 11 2 12 3 13 4 14 5 15 6 16 7 17 8 18 9 19 10 20 11
REMARK SMILES IDX 9 12 8 13 7 14 6 15 5 16 4 17 3 18 2 19 1 20
REMARK H PARENT
REMARK Flexibility Score: inf
ROOT
ATOM      1  C   UNL     1      43.802  56.735  60.363  1.00  0.00     0.000 C 
ENDROOT
BRANCH   1   2
ATOM      2  C   UNL     1      43.160  56.277  59.043  1.00  0.00     0.000 C 
BRANCH   2   3
ATOM      3  C   UNL     1      42.543  54.867  59.136  1.00  0.00     0.000 C 
BRANCH   3   4
ATOM      4  C   UNL     1      41.942  54.508  60.508  1.00  0.00     0.000 C 
BRANCH   4   5
ATOM      5  C   UNL     1      40.402  54.500  60.569  1.00  0.00     0.000 C 
BRANCH   5   6
ATOM      6  C   UNL     1      39.762  55.884  60.332  1.00  0.00     0.000 C 
BRANCH   6   7
ATOM      7  C   UNL     1      38.298  55.941  60.796  1.00  0.00     0.006 C 
BRANCH   7   8
ATOM      8  C   UNL     1      37.346  56.020  59.599  1.00  0.00     0.053 C 
BRANCH   8   9
ATOM      9  C   UNL     1      36.555  54.755  59.476  1.00  0.00     0.041 C 
ATOM     10  O   UNL     1      35.535  54.716  58.736  1.00  0.00    -0.550 OA
ATOM     11  O   UNL     1      36.975  53.605  60.132  1.00  0.00    -0.550 OA
ENDBRANCH   8   9
ENDBRANCH   7   8
ENDBRANCH   6   7
ENDBRANCH   5   6
ENDBRANCH   4   5
ENDBRANCH   3   4
ENDBRANCH   2   3
ENDBRANCH   1   2
BRANCH   1  12
ATOM     12  C   UNL     1      44.900  57.794  60.160  1.00  0.00     0.000 C 
BRANCH  12  13
ATOM     13  C   UNL     1      45.277  58.076  58.694  1.00  0.00    -0.000 C 
BRANCH  13  14
ATOM     14  C   UNL     1      44.915  59.498  58.242  1.00  0.00    -0.000 C 
BRANCH  14  15
ATOM     15  C   UNL     1      44.435  60.347  59.430  1.00  0.00    -0.000 C 
BRANCH  15  16
ATOM     16  C   UNL     1      42.950  60.728  59.323  1.00  0.00    -0.000 C 
BRANCH  16  17
ATOM     17  C   UNL     1      42.550  61.155  57.899  1.00  0.00    -0.000 C 
BRANCH  17  18
ATOM     18  C   UNL     1      41.311  60.404  57.385  1.00  0.00    -0.000 C 
BRANCH  18  19
ATOM     19  C   UNL     1      41.212  58.978  57.945  1.00  0.00    -0.003 C 
ATOM     20  C   UNL     1      39.775  58.466  57.896  1.00  0.00     0.004 C 
ENDBRANCH  18  19
ENDBRANCH  17  18
ENDBRANCH  16  17
ENDBRANCH  15  16
ENDBRANCH  14  15
ENDBRANCH  13  14
ENDBRANCH  12  13
ENDBRANCH   1  12
TORSDOF 16
ENDMDL
