MODEL 1
REMARK VINA RESULT:    -6.995      0.000      0.000
REMARK INTER + INTRA:         -11.825
REMARK INTER:                 -10.266
REMARK INTRA:                  -1.558
REMARK UNBOUND:                -1.558
REMARK SMILES O=c1c(O[C@@H]2O[C@@H](CO)[C@@H](O)[C@H](O)[C@H]2O)c(-c2ccc(O)c(O)c2)oc2cc(O)cc(O)c12
REMARK SMILES IDX 4 1 3 2 16 3 25 4 2 5 26 6 1 7 33 8 27 9 31 10 28 11 30 12
REMARK SMILES IDX 17 13 18 14 19 15 20 16 24 17 22 18 21 19 23 21 32 23 29 25
REMARK SMILES IDX 5 27 14 28 6 29 12 30 7 31 10 32 15 33 13 35 8 37 9 38 11 40
REMARK H PARENT 21 20 23 22 32 24 29 26 15 34 13 36 9 39 11 41
REMARK Flexibility Score: inf
ROOT
ATOM      1  O   UNL     1      53.776   6.141  79.317  1.00  0.00    -0.454 OA
ENDROOT
BRANCH   1   2
ATOM      2  C   UNL     1      54.777   7.091  79.095  1.00  0.00     0.214 A 
ATOM      3  C   UNL     1      56.089   6.949  79.596  1.00  0.00     0.180 A 
ATOM      4  O   UNL     1      57.056   7.675  79.045  1.00  0.00    -0.452 OA
ATOM      5  C   UNL     1      54.478   8.195  78.286  1.00  0.00     0.239 A 
ATOM      6  C   UNL     1      56.853   8.603  78.115  1.00  0.00     0.146 A 
ATOM      7  O   UNL     1      53.268   8.463  78.082  1.00  0.00    -0.285 OA
ATOM      8  C   UNL     1      55.534   8.967  77.726  1.00  0.00     0.111 A 
ATOM      9  C   UNL     1      57.966   9.224  77.538  1.00  0.00     0.094 A 
ATOM     10  C   UNL     1      55.378  10.038  76.786  1.00  0.00     0.134 A 
ATOM     11  C   UNL     1      57.803  10.227  76.588  1.00  0.00     0.123 A 
ATOM     12  C   UNL     1      56.518  10.644  76.233  1.00  0.00     0.093 A 
BRANCH   3  13
ATOM     13  C   UNL     1      56.457   6.054  80.731  1.00  0.00     0.025 A 
ATOM     14  C   UNL     1      57.451   5.054  80.618  1.00  0.00     0.016 A 
ATOM     15  C   UNL     1      57.743   4.218  81.701  1.00  0.00     0.051 A 
ATOM     16  C   UNL     1      56.986   4.291  82.874  1.00  0.00     0.157 A 
ATOM     17  C   UNL     1      55.691   6.099  81.915  1.00  0.00     0.062 A 
ATOM     18  C   UNL     1      55.941   5.217  82.975  1.00  0.00     0.158 A 
BRANCH  16  19
ATOM     19  O   UNL     1      57.254   3.404  83.915  1.00  0.00    -0.504 OA
ATOM     20  H   UNL     1      56.608   2.663  84.151  1.00  0.00     0.293 HD
ENDBRANCH  16  19
BRANCH  18  21
ATOM     21  O   UNL     1      55.143   5.250  84.125  1.00  0.00    -0.504 OA
ATOM     22  H   UNL     1      54.222   5.661  84.111  1.00  0.00     0.293 HD
ENDBRANCH  18  21
ENDBRANCH   3  13
BRANCH  10  23
ATOM     23  O   UNL     1      54.140  10.525  76.344  1.00  0.00    -0.507 OA
ATOM     24  H   UNL     1      53.665  10.229  75.509  1.00  0.00     0.293 HD
ENDBRANCH  10  23
BRANCH  11  25
ATOM     25  O   UNL     1      58.921  10.809  75.996  1.00  0.00    -0.508 OA
ATOM     26  H   UNL     1      58.948  11.020  75.006  1.00  0.00     0.293 HD
ENDBRANCH  11  25
ENDBRANCH   1   2
BRANCH   1  27
ATOM     27  C   UNL     1      53.823   4.789  78.838  1.00  0.00     0.339 C 
ATOM     28  C   UNL     1      53.793   3.807  80.005  1.00  0.00     0.214 C 
ATOM     29  O   UNL     1      52.787   4.495  77.926  1.00  0.00    -0.332 OA
ATOM     30  C   UNL     1      52.538   4.047  80.859  1.00  0.00     0.180 C 
ATOM     31  C   UNL     1      51.466   4.566  78.461  1.00  0.00     0.179 C 
ATOM     32  C   UNL     1      51.292   4.458  80.030  1.00  0.00     0.177 C 
BRANCH  28  33
ATOM     33  O   UNL     1      53.763   2.485  79.520  1.00  0.00    -0.384 OA
ATOM     34  H   UNL     1      54.430   1.970  80.045  1.00  0.00     0.211 HD
ENDBRANCH  28  33
BRANCH  30  35
ATOM     35  O   UNL     1      52.732   4.987  81.898  1.00  0.00    -0.387 OA
ATOM     36  H   UNL     1      53.224   5.786  81.571  1.00  0.00     0.211 HD
ENDBRANCH  30  35
BRANCH  31  37
ATOM     37  C   UNL     1      50.617   3.536  77.688  1.00  0.00     0.191 C 
BRANCH  37  38
ATOM     38  O   UNL     1      51.077   2.240  77.948  1.00  0.00    -0.394 OA
ATOM     39  H   UNL     1      51.997   2.213  77.574  1.00  0.00     0.210 HD
ENDBRANCH  37  38
ENDBRANCH  31  37
BRANCH  32  40
ATOM     40  O   UNL     1      50.217   3.610  80.365  1.00  0.00    -0.387 OA
ATOM     41  H   UNL     1      49.387   4.162  80.359  1.00  0.00     0.211 HD
ENDBRANCH  32  40
ENDBRANCH   1  27
TORSDOF 12
ENDMDL
MODEL 2
REMARK VINA RESULT:    -6.850      1.801      5.359
REMARK INTER + INTRA:         -11.611
REMARK INTER:                 -10.305
REMARK INTRA:                  -1.306
REMARK UNBOUND:                -1.558
REMARK SMILES O=c1c(O[C@@H]2O[C@@H](CO)[C@@H](O)[C@H](O)[C@H]2O)c(-c2ccc(O)c(O)c2)oc2cc(O)cc(O)c12
REMARK SMILES IDX 4 1 3 2 16 3 25 4 2 5 26 6 1 7 33 8 27 9 31 10 28 11 30 12
REMARK SMILES IDX 17 13 18 14 19 15 20 16 24 17 22 18 21 19 23 21 32 23 29 25
REMARK SMILES IDX 5 27 14 28 6 29 12 30 7 31 10 32 15 33 13 35 8 37 9 38 11 40
REMARK H PARENT 21 20 23 22 32 24 29 26 15 34 13 36 9 39 11 41
REMARK Flexibility Score: inf
ROOT
ATOM      1  O   UNL     1      56.347   4.172  80.596  1.00  0.00    -0.454 OA
ENDROOT
BRANCH   1   2
ATOM      2  C   UNL     1      56.399   5.073  79.528  1.00  0.00     0.214 A 
ATOM      3  C   UNL     1      55.275   5.383  78.735  1.00  0.00     0.180 A 
ATOM      4  O   UNL     1      55.304   6.494  78.006  1.00  0.00    -0.452 OA
ATOM      5  C   UNL     1      57.606   5.741  79.282  1.00  0.00     0.239 A 
ATOM      6  C   UNL     1      56.366   7.285  77.897  1.00  0.00     0.146 A 
ATOM      7  O   UNL     1      58.654   5.269  79.788  1.00  0.00    -0.285 OA
ATOM      8  C   UNL     1      57.611   6.917  78.480  1.00  0.00     0.111 A 
ATOM      9  C   UNL     1      56.237   8.482  77.184  1.00  0.00     0.094 A 
ATOM     10  C   UNL     1      58.742   7.767  78.250  1.00  0.00     0.134 A 
ATOM     11  C   UNL     1      57.330   9.325  77.012  1.00  0.00     0.123 A 
ATOM     12  C   UNL     1      58.577   8.957  77.523  1.00  0.00     0.093 A 
BRANCH   3  13
ATOM     13  C   UNL     1      54.058   4.524  78.637  1.00  0.00     0.025 A 
ATOM     14  C   UNL     1      54.116   3.169  78.238  1.00  0.00     0.016 A 
ATOM     15  C   UNL     1      52.946   2.410  78.132  1.00  0.00     0.051 A 
ATOM     16  C   UNL     1      51.697   3.008  78.320  1.00  0.00     0.157 A 
ATOM     17  C   UNL     1      52.788   5.115  78.803  1.00  0.00     0.062 A 
ATOM     18  C   UNL     1      51.614   4.369  78.633  1.00  0.00     0.158 A 
BRANCH  16  19
ATOM     19  O   UNL     1      50.543   2.246  78.146  1.00  0.00    -0.504 OA
ATOM     20  H   UNL     1      49.813   2.235  78.845  1.00  0.00     0.293 HD
ENDBRANCH  16  19
BRANCH  18  21
ATOM     21  O   UNL     1      50.362   4.984  78.762  1.00  0.00    -0.504 OA
ATOM     22  H   UNL     1      50.195   5.690  79.461  1.00  0.00     0.293 HD
ENDBRANCH  18  21
ENDBRANCH   3  13
BRANCH  10  23
ATOM     23  O   UNL     1      60.032   7.508  78.731  1.00  0.00    -0.507 OA
ATOM     24  H   UNL     1      60.336   7.642  79.680  1.00  0.00     0.293 HD
ENDBRANCH  10  23
BRANCH  11  25
ATOM     25  O   UNL     1      57.175  10.530  76.331  1.00  0.00    -0.508 OA
ATOM     26  H   UNL     1      57.485  10.642  75.374  1.00  0.00     0.293 HD
ENDBRANCH  11  25
ENDBRANCH   1   2
BRANCH   1  27
ATOM     27  C   UNL     1      55.446   4.288  81.708  1.00  0.00     0.339 C 
ATOM     28  C   UNL     1      56.042   3.628  82.948  1.00  0.00     0.214 C 
ATOM     29  O   UNL     1      55.092   5.624  81.989  1.00  0.00    -0.332 OA
ATOM     30  C   UNL     1      57.405   4.259  83.274  1.00  0.00     0.180 C 
ATOM     31  C   UNL     1      56.168   6.467  82.401  1.00  0.00     0.179 C 
ATOM     32  C   UNL     1      57.473   5.780  82.975  1.00  0.00     0.177 C 
BRANCH  28  33
ATOM     33  O   UNL     1      55.185   3.813  84.049  1.00  0.00    -0.384 OA
ATOM     34  H   UNL     1      55.202   4.781  84.269  1.00  0.00     0.211 HD
ENDBRANCH  28  33
BRANCH  30  35
ATOM     35  O   UNL     1      58.493   3.615  82.637  1.00  0.00    -0.387 OA
ATOM     36  H   UNL     1      58.848   4.165  81.890  1.00  0.00     0.211 HD
ENDBRANCH  30  35
BRANCH  31  37
ATOM     37  C   UNL     1      55.569   7.518  83.356  1.00  0.00     0.191 C 
BRANCH  37  38
ATOM     38  O   UNL     1      54.504   6.965  84.076  1.00  0.00    -0.394 OA
ATOM     39  H   UNL     1      53.708   7.087  83.494  1.00  0.00     0.210 HD
ENDBRANCH  37  38
ENDBRANCH  31  37
BRANCH  32  40
ATOM     40  O   UNL     1      57.937   6.453  84.123  1.00  0.00    -0.387 OA
ATOM     41  H   UNL     1      58.718   5.941  84.474  1.00  0.00     0.211 HD
ENDBRANCH  32  40
ENDBRANCH   1  27
TORSDOF 12
ENDMDL
MODEL 3
REMARK VINA RESULT:    -6.723      1.866      6.334
REMARK INTER + INTRA:         -11.426
REMARK INTER:                  -9.621
REMARK INTRA:                  -1.805
REMARK UNBOUND:                -1.558
REMARK SMILES O=c1c(O[C@@H]2O[C@@H](CO)[C@@H](O)[C@H](O)[C@H]2O)c(-c2ccc(O)c(O)c2)oc2cc(O)cc(O)c12
REMARK SMILES IDX 4 1 3 2 16 3 25 4 2 5 26 6 1 7 33 8 27 9 31 10 28 11 30 12
REMARK SMILES IDX 17 13 18 14 19 15 20 16 24 17 22 18 21 19 23 21 32 23 29 25
REMARK SMILES IDX 5 27 14 28 6 29 12 30 7 31 10 32 15 33 13 35 8 37 9 38 11 40
REMARK H PARENT 21 20 23 22 32 24 29 26 15 34 13 36 9 39 11 41
REMARK Flexibility Score: inf
ROOT
ATOM      1  O   UNL     1      53.716   7.222  79.153  1.00  0.00    -0.454 OA
ENDROOT
BRANCH   1   2
ATOM      2  C   UNL     1      54.375   6.431  80.098  1.00  0.00     0.214 A 
ATOM      3  C   UNL     1      54.239   5.027  80.147  1.00  0.00     0.180 A 
ATOM      4  O   UNL     1      55.158   4.327  80.804  1.00  0.00    -0.452 OA
ATOM      5  C   UNL     1      55.257   7.056  80.989  1.00  0.00     0.239 A 
ATOM      6  C   UNL     1      56.149   4.870  81.504  1.00  0.00     0.146 A 
ATOM      7  O   UNL     1      55.165   8.301  81.131  1.00  0.00    -0.285 OA
ATOM      8  C   UNL     1      56.218   6.279  81.694  1.00  0.00     0.111 A 
ATOM      9  C   UNL     1      57.114   4.025  82.062  1.00  0.00     0.094 A 
ATOM     10  C   UNL     1      57.257   6.796  82.535  1.00  0.00     0.134 A 
ATOM     11  C   UNL     1      58.148   4.544  82.833  1.00  0.00     0.123 A 
ATOM     12  C   UNL     1      58.205   5.917  83.085  1.00  0.00     0.093 A 
BRANCH   3  13
ATOM     13  C   UNL     1      53.106   4.276  79.532  1.00  0.00     0.025 A 
ATOM     14  C   UNL     1      53.245   3.538  78.334  1.00  0.00     0.016 A 
ATOM     15  C   UNL     1      52.148   2.873  77.778  1.00  0.00     0.051 A 
ATOM     16  C   UNL     1      50.876   3.014  78.343  1.00  0.00     0.157 A 
ATOM     17  C   UNL     1      51.812   4.422  80.077  1.00  0.00     0.062 A 
ATOM     18  C   UNL     1      50.702   3.808  79.481  1.00  0.00     0.158 A 
BRANCH  16  19
ATOM     19  O   UNL     1      49.787   2.393  77.734  1.00  0.00    -0.504 OA
ATOM     20  H   UNL     1      49.429   2.717  76.846  1.00  0.00     0.293 HD
ENDBRANCH  16  19
BRANCH  18  21
ATOM     21  O   UNL     1      49.420   4.000  80.013  1.00  0.00    -0.504 OA
ATOM     22  H   UNL     1      49.177   4.848  80.499  1.00  0.00     0.293 HD
ENDBRANCH  18  21
ENDBRANCH   3  13
BRANCH  10  23
ATOM     23  O   UNL     1      57.422   8.154  82.839  1.00  0.00    -0.507 OA
ATOM     24  H   UNL     1      58.009   8.795  82.334  1.00  0.00     0.293 HD
ENDBRANCH  10  23
BRANCH  11  25
ATOM     25  O   UNL     1      59.122   3.692  83.350  1.00  0.00    -0.508 OA
ATOM     26  H   UNL     1      60.033   3.605  82.918  1.00  0.00     0.293 HD
ENDBRANCH  11  25
ENDBRANCH   1   2
BRANCH   1  27
ATOM     27  C   UNL     1      54.095   7.317  77.772  1.00  0.00     0.339 C 
ATOM     28  C   UNL     1      52.866   7.538  76.894  1.00  0.00     0.214 C 
ATOM     29  O   UNL     1      55.051   8.327  77.535  1.00  0.00    -0.332 OA
ATOM     30  C   UNL     1      52.118   8.801  77.350  1.00  0.00     0.180 C 
ATOM     31  C   UNL     1      54.613   9.658  77.806  1.00  0.00     0.179 C 
ATOM     32  C   UNL     1      53.055   9.935  77.843  1.00  0.00     0.177 C 
BRANCH  28  33
ATOM     33  O   UNL     1      53.258   7.705  75.553  1.00  0.00    -0.384 OA
ATOM     34  H   UNL     1      53.872   6.956  75.335  1.00  0.00     0.211 HD
ENDBRANCH  28  33
BRANCH  30  35
ATOM     35  O   UNL     1      51.137   8.551  78.338  1.00  0.00    -0.387 OA
ATOM     36  H   UNL     1      50.515   7.830  78.052  1.00  0.00     0.211 HD
ENDBRANCH  30  35
BRANCH  31  37
ATOM     37  C   UNL     1      55.367  10.583  76.830  1.00  0.00     0.191 C 
BRANCH  37  38
ATOM     38  O   UNL     1      55.089  10.217  75.507  1.00  0.00    -0.394 OA
ATOM     39  H   UNL     1      55.963   9.933  75.129  1.00  0.00     0.210 HD
ENDBRANCH  37  38
ENDBRANCH  31  37
BRANCH  32  40
ATOM     40  O   UNL     1      52.735  11.125  77.160  1.00  0.00    -0.387 OA
ATOM     41  H   UNL     1      53.371  11.212  76.397  1.00  0.00     0.211 HD
ENDBRANCH  32  40
ENDBRANCH   1  27
TORSDOF 12
ENDMDL
MODEL 4
REMARK VINA RESULT:    -6.688      2.294      4.991
REMARK INTER + INTRA:         -11.374
REMARK INTER:                  -9.943
REMARK INTRA:                  -1.431
REMARK UNBOUND:                -1.558
REMARK SMILES O=c1c(O[C@@H]2O[C@@H](CO)[C@@H](O)[C@H](O)[C@H]2O)c(-c2ccc(O)c(O)c2)oc2cc(O)cc(O)c12
REMARK SMILES IDX 4 1 3 2 16 3 25 4 2 5 26 6 1 7 33 8 27 9 31 10 28 11 30 12
REMARK SMILES IDX 17 13 18 14 19 15 20 16 24 17 22 18 21 19 23 21 32 23 29 25
REMARK SMILES IDX 5 27 14 28 6 29 12 30 7 31 10 32 15 33 13 35 8 37 9 38 11 40
REMARK H PARENT 21 20 23 22 32 24 29 26 15 34 13 36 9 39 11 41
REMARK Flexibility Score: inf
ROOT
ATOM      1  O   UNL     1      53.919   5.836  78.978  1.00  0.00    -0.454 OA
ENDROOT
BRANCH   1   2
ATOM      2  C   UNL     1      55.028   6.652  78.740  1.00  0.00     0.214 A 
ATOM      3  C   UNL     1      54.916   7.970  78.249  1.00  0.00     0.180 A 
ATOM      4  O   UNL     1      55.949   8.792  78.403  1.00  0.00    -0.452 OA
ATOM      5  C   UNL     1      56.298   6.159  79.068  1.00  0.00     0.239 A 
ATOM      6  C   UNL     1      57.124   8.424  78.904  1.00  0.00     0.146 A 
ATOM      7  O   UNL     1      56.424   4.920  79.230  1.00  0.00    -0.285 OA
ATOM      8  C   UNL     1      57.391   7.060  79.206  1.00  0.00     0.111 A 
ATOM      9  C   UNL     1      58.097   9.407  79.114  1.00  0.00     0.094 A 
ATOM     10  C   UNL     1      58.707   6.713  79.657  1.00  0.00     0.134 A 
ATOM     11  C   UNL     1      59.354   9.066  79.601  1.00  0.00     0.123 A 
ATOM     12  C   UNL     1      59.662   7.725  79.849  1.00  0.00     0.093 A 
BRANCH   3  13
ATOM     13  C   UNL     1      53.715   8.495  77.535  1.00  0.00     0.025 A 
ATOM     14  C   UNL     1      53.778   9.009  76.220  1.00  0.00     0.016 A 
ATOM     15  C   UNL     1      52.631   9.518  75.601  1.00  0.00     0.051 A 
ATOM     16  C   UNL     1      51.432   9.622  76.312  1.00  0.00     0.157 A 
ATOM     17  C   UNL     1      52.501   8.626  78.243  1.00  0.00     0.062 A 
ATOM     18  C   UNL     1      51.370   9.197  77.643  1.00  0.00     0.158 A 
BRANCH  16  19
ATOM     19  O   UNL     1      50.320  10.192  75.694  1.00  0.00    -0.504 OA
ATOM     20  H   UNL     1      50.418  10.964  75.049  1.00  0.00     0.293 HD
ENDBRANCH  16  19
BRANCH  18  21
ATOM     21  O   UNL     1      50.187   9.355  78.376  1.00  0.00    -0.504 OA
ATOM     22  H   UNL     1      49.406   9.871  78.003  1.00  0.00     0.293 HD
ENDBRANCH  18  21
ENDBRANCH   3  13
BRANCH  10  23
ATOM     23  O   UNL     1      59.120   5.407  79.954  1.00  0.00    -0.507 OA
ATOM     24  H   UNL     1      60.002   5.003  79.689  1.00  0.00     0.293 HD
ENDBRANCH  10  23
BRANCH  11  25
ATOM     25  O   UNL     1      60.299  10.061  79.840  1.00  0.00    -0.508 OA
ATOM     26  H   UNL     1      61.263   9.837  80.051  1.00  0.00     0.293 HD
ENDBRANCH  11  25
ENDBRANCH   1   2
BRANCH   1  27
ATOM     27  C   UNL     1      53.469   4.803  78.089  1.00  0.00     0.339 C 
ATOM     28  C   UNL     1      53.824   3.427  78.645  1.00  0.00     0.214 C 
ATOM     29  O   UNL     1      52.086   4.878  77.819  1.00  0.00    -0.332 OA
ATOM     30  C   UNL     1      53.214   3.255  80.046  1.00  0.00     0.180 C 
ATOM     31  C   UNL     1      51.233   4.680  78.945  1.00  0.00     0.179 C 
ATOM     32  C   UNL     1      51.827   3.931  80.206  1.00  0.00     0.177 C 
BRANCH  28  33
ATOM     33  O   UNL     1      53.312   2.422  77.803  1.00  0.00    -0.384 OA
ATOM     34  H   UNL     1      52.370   2.663  77.605  1.00  0.00     0.211 HD
ENDBRANCH  28  33
BRANCH  30  35
ATOM     35  O   UNL     1      54.064   3.690  81.089  1.00  0.00    -0.387 OA
ATOM     36  H   UNL     1      54.457   4.580  80.885  1.00  0.00     0.211 HD
ENDBRANCH  30  35
BRANCH  31  37
ATOM     37  C   UNL     1      49.937   4.034  78.415  1.00  0.00     0.191 C 
BRANCH  37  38
ATOM     38  O   UNL     1      50.223   2.798  77.823  1.00  0.00    -0.394 OA
ATOM     39  H   UNL     1      51.131   2.559  78.149  1.00  0.00     0.210 HD
ENDBRANCH  37  38
ENDBRANCH  31  37
BRANCH  32  40
ATOM     40  O   UNL     1      50.912   2.987  80.714  1.00  0.00    -0.387 OA
ATOM     41  H   UNL     1      50.344   3.454  81.387  1.00  0.00     0.211 HD
ENDBRANCH  32  40
ENDBRANCH   1  27
TORSDOF 12
ENDMDL
MODEL 5
REMARK VINA RESULT:    -6.618      1.545      5.266
REMARK INTER + INTRA:         -11.272
REMARK INTER:                  -9.929
REMARK INTRA:                  -1.343
REMARK UNBOUND:                -1.558
REMARK SMILES O=c1c(O[C@@H]2O[C@@H](CO)[C@@H](O)[C@H](O)[C@H]2O)c(-c2ccc(O)c(O)c2)oc2cc(O)cc(O)c12
REMARK SMILES IDX 4 1 3 2 16 3 25 4 2 5 26 6 1 7 33 8 27 9 31 10 28 11 30 12
REMARK SMILES IDX 17 13 18 14 19 15 20 16 24 17 22 18 21 19 23 21 32 23 29 25
REMARK SMILES IDX 5 27 14 28 6 29 12 30 7 31 10 32 15 33 13 35 8 37 9 38 11 40
REMARK H PARENT 21 20 23 22 32 24 29 26 15 34 13 36 9 39 11 41
REMARK Flexibility Score: inf
ROOT
ATOM      1  O   UNL     1      55.027   5.557  80.455  1.00  0.00    -0.454 OA
ENDROOT
BRANCH   1   2
ATOM      2  C   UNL     1      54.835   6.235  79.248  1.00  0.00     0.214 A 
ATOM      3  C   UNL     1      53.636   6.155  78.510  1.00  0.00     0.180 A 
ATOM      4  O   UNL     1      53.389   7.094  77.601  1.00  0.00    -0.452 OA
ATOM      5  C   UNL     1      55.855   7.081  78.791  1.00  0.00     0.239 A 
ATOM      6  C   UNL     1      54.248   8.053  77.270  1.00  0.00     0.146 A 
ATOM      7  O   UNL     1      57.002   6.937  79.282  1.00  0.00    -0.285 OA
ATOM      8  C   UNL     1      55.568   8.063  77.803  1.00  0.00     0.111 A 
ATOM      9  C   UNL     1      53.830   9.044  76.376  1.00  0.00     0.094 A 
ATOM     10  C   UNL     1      56.475   9.071  77.337  1.00  0.00     0.134 A 
ATOM     11  C   UNL     1      54.704  10.047  75.972  1.00  0.00     0.123 A 
ATOM     12  C   UNL     1      56.023  10.045  76.433  1.00  0.00     0.093 A 
BRANCH   3  13
ATOM     13  C   UNL     1      52.632   5.061  78.662  1.00  0.00     0.025 A 
ATOM     14  C   UNL     1      52.544   3.980  77.755  1.00  0.00     0.016 A 
ATOM     15  C   UNL     1      51.568   2.992  77.921  1.00  0.00     0.051 A 
ATOM     16  C   UNL     1      50.603   3.114  78.925  1.00  0.00     0.157 A 
ATOM     17  C   UNL     1      51.639   5.177  79.657  1.00  0.00     0.062 A 
ATOM     18  C   UNL     1      50.622   4.220  79.782  1.00  0.00     0.158 A 
BRANCH  16  19
ATOM     19  O   UNL     1      49.603   2.149  79.030  1.00  0.00    -0.504 OA
ATOM     20  H   UNL     1      48.771   2.315  79.581  1.00  0.00     0.293 HD
ENDBRANCH  16  19
BRANCH  18  21
ATOM     21  O   UNL     1      49.621   4.376  80.749  1.00  0.00    -0.504 OA
ATOM     22  H   UNL     1      49.373   3.622  81.370  1.00  0.00     0.293 HD
ENDBRANCH  18  21
ENDBRANCH   3  13
BRANCH  10  23
ATOM     23  O   UNL     1      57.811   9.176  77.746  1.00  0.00    -0.507 OA
ATOM     24  H   UNL     1      58.121   9.277  78.698  1.00  0.00     0.293 HD
ENDBRANCH  10  23
BRANCH  11  25
ATOM     25  O   UNL     1      54.260  11.048  75.111  1.00  0.00    -0.508 OA
ATOM     26  H   UNL     1      53.338  11.019  74.695  1.00  0.00     0.293 HD
ENDBRANCH  11  25
ENDBRANCH   1   2
BRANCH   1  27
ATOM     27  C   UNL     1      54.757   6.116  81.749  1.00  0.00     0.339 C 
ATOM     28  C   UNL     1      53.930   5.145  82.588  1.00  0.00     0.214 C 
ATOM     29  O   UNL     1      55.929   6.483  82.442  1.00  0.00    -0.332 OA
ATOM     30  C   UNL     1      54.666   3.800  82.709  1.00  0.00     0.180 C 
ATOM     31  C   UNL     1      56.807   5.407  82.770  1.00  0.00     0.179 C 
ATOM     32  C   UNL     1      56.209   3.942  82.803  1.00  0.00     0.177 C 
BRANCH  28  33
ATOM     33  O   UNL     1      53.736   5.671  83.879  1.00  0.00    -0.384 OA
ATOM     34  H   UNL     1      52.784   5.517  84.114  1.00  0.00     0.211 HD
ENDBRANCH  28  33
BRANCH  30  35
ATOM     35  O   UNL     1      54.348   2.887  81.676  1.00  0.00    -0.387 OA
ATOM     36  H   UNL     1      55.168   2.474  81.298  1.00  0.00     0.211 HD
ENDBRANCH  30  35
BRANCH  31  37
ATOM     37  C   UNL     1      57.518   5.796  84.082  1.00  0.00     0.191 C 
BRANCH  37  38
ATOM     38  O   UNL     1      57.733   7.179  84.122  1.00  0.00    -0.394 OA
ATOM     39  H   UNL     1      56.988   7.571  83.594  1.00  0.00     0.210 HD
ENDBRANCH  37  38
ENDBRANCH  31  37
BRANCH  32  40
ATOM     40  O   UNL     1      56.667   3.230  83.929  1.00  0.00    -0.387 OA
ATOM     41  H   UNL     1      56.122   3.523  84.710  1.00  0.00     0.211 HD
ENDBRANCH  32  40
ENDBRANCH   1  27
TORSDOF 12
ENDMDL
MODEL 6
REMARK VINA RESULT:    -6.597      2.282      5.448
REMARK INTER + INTRA:         -11.241
REMARK INTER:                  -9.496
REMARK INTRA:                  -1.745
REMARK UNBOUND:                -1.558
REMARK SMILES O=c1c(O[C@@H]2O[C@@H](CO)[C@@H](O)[C@H](O)[C@H]2O)c(-c2ccc(O)c(O)c2)oc2cc(O)cc(O)c12
REMARK SMILES IDX 4 1 3 2 16 3 25 4 2 5 26 6 1 7 33 8 27 9 31 10 28 11 30 12
REMARK SMILES IDX 17 13 18 14 19 15 20 16 24 17 22 18 21 19 23 21 32 23 29 25
REMARK SMILES IDX 5 27 14 28 6 29 12 30 7 31 10 32 15 33 13 35 8 37 9 38 11 40
REMARK H PARENT 21 20 23 22 32 24 29 26 15 34 13 36 9 39 11 41
REMARK Flexibility Score: inf
ROOT
ATOM      1  O   UNL     1      54.112   5.966  78.333  1.00  0.00    -0.454 OA
ENDROOT
BRANCH   1   2
ATOM      2  C   UNL     1      55.183   6.861  78.264  1.00  0.00     0.214 A 
ATOM      3  C   UNL     1      55.009   8.248  78.067  1.00  0.00     0.180 A 
ATOM      4  O   UNL     1      56.011   9.061  78.384  1.00  0.00    -0.452 OA
ATOM      5  C   UNL     1      56.477   6.365  78.466  1.00  0.00     0.239 A 
ATOM      6  C   UNL     1      57.209   8.647  78.782  1.00  0.00     0.146 A 
ATOM      7  O   UNL     1      56.656   5.126  78.359  1.00  0.00    -0.285 OA
ATOM      8  C   UNL     1      57.536   7.262  78.783  1.00  0.00     0.111 A 
ATOM      9  C   UNL     1      58.146   9.603  79.188  1.00  0.00     0.094 A 
ATOM     10  C   UNL     1      58.873   6.884  79.136  1.00  0.00     0.134 A 
ATOM     11  C   UNL     1      59.424   9.220  79.579  1.00  0.00     0.123 A 
ATOM     12  C   UNL     1      59.790   7.872  79.531  1.00  0.00     0.093 A 
BRANCH   3  13
ATOM     13  C   UNL     1      53.774   8.861  77.494  1.00  0.00     0.025 A 
ATOM     14  C   UNL     1      53.517   8.894  76.105  1.00  0.00     0.016 A 
ATOM     15  C   UNL     1      52.361   9.506  75.611  1.00  0.00     0.051 A 
ATOM     16  C   UNL     1      51.496  10.183  76.475  1.00  0.00     0.157 A 
ATOM     17  C   UNL     1      52.901   9.566  78.349  1.00  0.00     0.062 A 
ATOM     18  C   UNL     1      51.777  10.235  77.845  1.00  0.00     0.158 A 
BRANCH  16  19
ATOM     19  O   UNL     1      50.384  10.840  75.952  1.00  0.00    -0.504 OA
ATOM     20  H   UNL     1      49.898  11.551  76.481  1.00  0.00     0.293 HD
ENDBRANCH  16  19
BRANCH  18  21
ATOM     21  O   UNL     1      50.946  10.964  78.705  1.00  0.00    -0.504 OA
ATOM     22  H   UNL     1      49.960  11.064  78.519  1.00  0.00     0.293 HD
ENDBRANCH  18  21
ENDBRANCH   3  13
BRANCH  10  23
ATOM     23  O   UNL     1      59.343   5.564  79.143  1.00  0.00    -0.507 OA
ATOM     24  H   UNL     1      59.109   4.868  79.830  1.00  0.00     0.293 HD
ENDBRANCH  10  23
BRANCH  11  25
ATOM     25  O   UNL     1      60.333  10.181  80.016  1.00  0.00    -0.508 OA
ATOM     26  H   UNL     1      61.211  10.336  79.537  1.00  0.00     0.293 HD
ENDBRANCH  11  25
ENDBRANCH   1   2
BRANCH   1  27
ATOM     27  C   UNL     1      53.035   6.064  79.277  1.00  0.00     0.339 C 
ATOM     28  C   UNL     1      52.041   4.924  79.072  1.00  0.00     0.214 C 
ATOM     29  O   UNL     1      53.481   6.088  80.615  1.00  0.00    -0.332 OA
ATOM     30  C   UNL     1      52.762   3.572  79.194  1.00  0.00     0.180 C 
ATOM     31  C   UNL     1      54.146   4.906  81.058  1.00  0.00     0.179 C 
ATOM     32  C   UNL     1      53.893   3.565  80.256  1.00  0.00     0.177 C 
BRANCH  28  33
ATOM     33  O   UNL     1      51.031   4.987  80.051  1.00  0.00    -0.384 OA
ATOM     34  H   UNL     1      50.227   5.373  79.613  1.00  0.00     0.211 HD
ENDBRANCH  28  33
BRANCH  30  35
ATOM     35  O   UNL     1      53.277   3.094  77.967  1.00  0.00    -0.387 OA
ATOM     36  H   UNL     1      54.260   2.955  78.020  1.00  0.00     0.211 HD
ENDBRANCH  30  35
BRANCH  31  37
ATOM     37  C   UNL     1      53.856   4.770  82.566  1.00  0.00     0.191 C 
BRANCH  37  38
ATOM     38  O   UNL     1      52.479   4.643  82.783  1.00  0.00    -0.394 OA
ATOM     39  H   UNL     1      52.054   4.989  81.954  1.00  0.00     0.210 HD
ENDBRANCH  37  38
ENDBRANCH  31  37
BRANCH  32  40
ATOM     40  O   UNL     1      53.694   2.479  81.132  1.00  0.00    -0.387 OA
ATOM     41  H   UNL     1      54.397   2.532  81.838  1.00  0.00     0.211 HD
ENDBRANCH  32  40
ENDBRANCH   1  27
TORSDOF 12
ENDMDL
MODEL 7
REMARK VINA RESULT:    -6.456      2.179      5.396
REMARK INTER + INTRA:         -11.033
REMARK INTER:                  -9.184
REMARK INTRA:                  -1.850
REMARK UNBOUND:                -1.558
REMARK SMILES O=c1c(O[C@@H]2O[C@@H](CO)[C@@H](O)[C@H](O)[C@H]2O)c(-c2ccc(O)c(O)c2)oc2cc(O)cc(O)c12
REMARK SMILES IDX 4 1 3 2 16 3 25 4 2 5 26 6 1 7 33 8 27 9 31 10 28 11 30 12
REMARK SMILES IDX 17 13 18 14 19 15 20 16 24 17 22 18 21 19 23 21 32 23 29 25
REMARK SMILES IDX 5 27 14 28 6 29 12 30 7 31 10 32 15 33 13 35 8 37 9 38 11 40
REMARK H PARENT 21 20 23 22 32 24 29 26 15 34 13 36 9 39 11 41
REMARK Flexibility Score: inf
ROOT
ATOM      1  O   UNL     1      56.281   7.823  79.194  1.00  0.00    -0.454 OA
ENDROOT
BRANCH   1   2
ATOM      2  C   UNL     1      55.215   8.002  78.307  1.00  0.00     0.214 A 
ATOM      3  C   UNL     1      53.985   7.325  78.444  1.00  0.00     0.180 A 
ATOM      4  O   UNL     1      52.922   7.812  77.812  1.00  0.00    -0.452 OA
ATOM      5  C   UNL     1      55.357   8.944  77.280  1.00  0.00     0.239 A 
ATOM      6  C   UNL     1      52.962   8.843  76.975  1.00  0.00     0.146 A 
ATOM      7  O   UNL     1      56.518   9.328  76.990  1.00  0.00    -0.285 OA
ATOM      8  C   UNL     1      54.203   9.433  76.606  1.00  0.00     0.111 A 
ATOM      9  C   UNL     1      51.757   9.328  76.455  1.00  0.00     0.094 A 
ATOM     10  C   UNL     1      54.188  10.482  75.629  1.00  0.00     0.134 A 
ATOM     11  C   UNL     1      51.751  10.381  75.547  1.00  0.00     0.123 A 
ATOM     12  C   UNL     1      52.960  10.938  75.122  1.00  0.00     0.093 A 
BRANCH   3  13
ATOM     13  C   UNL     1      53.806   6.071  79.234  1.00  0.00     0.025 A 
ATOM     14  C   UNL     1      53.558   6.079  80.626  1.00  0.00     0.016 A 
ATOM     15  C   UNL     1      53.426   4.879  81.331  1.00  0.00     0.051 A 
ATOM     16  C   UNL     1      53.639   3.656  80.688  1.00  0.00     0.157 A 
ATOM     17  C   UNL     1      54.037   4.829  78.607  1.00  0.00     0.062 A 
ATOM     18  C   UNL     1      53.968   3.629  79.328  1.00  0.00     0.158 A 
BRANCH  16  19
ATOM     19  O   UNL     1      53.564   2.476  81.426  1.00  0.00    -0.504 OA
ATOM     20  H   UNL     1      53.253   2.478  82.388  1.00  0.00     0.293 HD
ENDBRANCH  16  19
BRANCH  18  21
ATOM     21  O   UNL     1      54.241   2.409  78.697  1.00  0.00    -0.504 OA
ATOM     22  H   UNL     1      55.164   2.005  78.716  1.00  0.00     0.293 HD
ENDBRANCH  18  21
ENDBRANCH   3  13
BRANCH  10  23
ATOM     23  O   UNL     1      55.336  11.125  75.145  1.00  0.00    -0.507 OA
ATOM     24  H   UNL     1      56.231  10.688  75.008  1.00  0.00     0.293 HD
ENDBRANCH  10  23
BRANCH  11  25
ATOM     25  O   UNL     1      50.541  10.876  75.068  1.00  0.00    -0.508 OA
ATOM     26  H   UNL     1      50.464  11.810  74.685  1.00  0.00     0.293 HD
ENDBRANCH  11  25
ENDBRANCH   1   2
BRANCH   1  27
ATOM     27  C   UNL     1      57.271   6.791  79.071  1.00  0.00     0.339 C 
ATOM     28  C   UNL     1      58.667   7.360  79.306  1.00  0.00     0.214 C 
ATOM     29  O   UNL     1      57.036   5.702  79.937  1.00  0.00    -0.332 OA
ATOM     30  C   UNL     1      58.734   8.029  80.688  1.00  0.00     0.180 C 
ATOM     31  C   UNL     1      57.105   6.003  81.330  1.00  0.00     0.179 C 
ATOM     32  C   UNL     1      57.893   7.303  81.772  1.00  0.00     0.177 C 
BRANCH  28  33
ATOM     33  O   UNL     1      59.621   6.326  79.258  1.00  0.00    -0.384 OA
ATOM     34  H   UNL     1      60.424   6.650  79.745  1.00  0.00     0.211 HD
ENDBRANCH  28  33
BRANCH  30  35
ATOM     35  O   UNL     1      58.382   9.399  80.671  1.00  0.00    -0.387 OA
ATOM     36  H   UNL     1      59.131   9.958  80.334  1.00  0.00     0.211 HD
ENDBRANCH  30  35
BRANCH  31  37
ATOM     37  C   UNL     1      57.602   4.727  82.038  1.00  0.00     0.191 C 
BRANCH  37  38
ATOM     38  O   UNL     1      58.868   4.371  81.556  1.00  0.00    -0.394 OA
ATOM     39  H   UNL     1      59.070   5.035  80.845  1.00  0.00     0.210 HD
ENDBRANCH  37  38
ENDBRANCH  31  37
BRANCH  32  40
ATOM     40  O   UNL     1      58.709   7.046  82.891  1.00  0.00    -0.387 OA
ATOM     41  H   UNL     1      59.308   6.285  82.656  1.00  0.00     0.211 HD
ENDBRANCH  32  40
ENDBRANCH   1  27
TORSDOF 12
ENDMDL
MODEL 8
REMARK VINA RESULT:    -6.453      2.378      7.991
REMARK INTER + INTRA:         -11.030
REMARK INTER:                  -9.205
REMARK INTRA:                  -1.825
REMARK UNBOUND:                -1.558
REMARK SMILES O=c1c(O[C@@H]2O[C@@H](CO)[C@@H](O)[C@H](O)[C@H]2O)c(-c2ccc(O)c(O)c2)oc2cc(O)cc(O)c12
REMARK SMILES IDX 4 1 3 2 16 3 25 4 2 5 26 6 1 7 33 8 27 9 31 10 28 11 30 12
REMARK SMILES IDX 17 13 18 14 19 15 20 16 24 17 22 18 21 19 23 21 32 23 29 25
REMARK SMILES IDX 5 27 14 28 6 29 12 30 7 31 10 32 15 33 13 35 8 37 9 38 11 40
REMARK H PARENT 21 20 23 22 32 24 29 26 15 34 13 36 9 39 11 41
REMARK Flexibility Score: inf
ROOT
ATOM      1  O   UNL     1      55.758   6.550  79.822  1.00  0.00    -0.454 OA
ENDROOT
BRANCH   1   2
ATOM      2  C   UNL     1      54.634   6.081  80.507  1.00  0.00     0.214 A 
ATOM      3  C   UNL     1      53.319   6.250  80.023  1.00  0.00     0.180 A 
ATOM      4  O   UNL     1      52.360   5.473  80.516  1.00  0.00    -0.452 OA
ATOM      5  C   UNL     1      54.831   5.356  81.690  1.00  0.00     0.239 A 
ATOM      6  C   UNL     1      52.539   4.610  81.511  1.00  0.00     0.146 A 
ATOM      7  O   UNL     1      55.948   5.448  82.257  1.00  0.00    -0.285 OA
ATOM      8  C   UNL     1      53.779   4.548  82.206  1.00  0.00     0.111 A 
ATOM      9  C   UNL     1      51.477   3.773  81.868  1.00  0.00     0.094 A 
ATOM     10  C   UNL     1      53.881   3.661  83.328  1.00  0.00     0.134 A 
ATOM     11  C   UNL     1      51.605   2.879  82.926  1.00  0.00     0.123 A 
ATOM     12  C   UNL     1      52.791   2.841  83.663  1.00  0.00     0.093 A 
BRANCH   3  13
ATOM     13  C   UNL     1      52.927   7.273  79.010  1.00  0.00     0.025 A 
ATOM     14  C   UNL     1      52.049   8.340  79.308  1.00  0.00     0.016 A 
ATOM     15  C   UNL     1      51.686   9.259  78.317  1.00  0.00     0.051 A 
ATOM     16  C   UNL     1      52.104   9.075  76.996  1.00  0.00     0.157 A 
ATOM     17  C   UNL     1      53.323   7.092  77.667  1.00  0.00     0.062 A 
ATOM     18  C   UNL     1      52.905   7.976  76.663  1.00  0.00     0.158 A 
BRANCH  16  19
ATOM     19  O   UNL     1      51.677   9.968  76.015  1.00  0.00    -0.504 OA
ATOM     20  H   UNL     1      50.879   9.761  75.430  1.00  0.00     0.293 HD
ENDBRANCH  16  19
BRANCH  18  21
ATOM     21  O   UNL     1      53.275   7.756  75.331  1.00  0.00    -0.504 OA
ATOM     22  H   UNL     1      53.961   8.337  74.875  1.00  0.00     0.293 HD
ENDBRANCH  18  21
ENDBRANCH   3  13
BRANCH  10  23
ATOM     23  O   UNL     1      55.026   3.527  84.125  1.00  0.00    -0.507 OA
ATOM     24  H   UNL     1      55.740   4.226  84.237  1.00  0.00     0.293 HD
ENDBRANCH  10  23
BRANCH  11  25
ATOM     25  O   UNL     1      50.550   2.027  83.245  1.00  0.00    -0.508 OA
ATOM     26  H   UNL     1      50.278   1.856  84.205  1.00  0.00     0.293 HD
ENDBRANCH  11  25
ENDBRANCH   1   2
BRANCH   1  27
ATOM     27  C   UNL     1      56.195   7.917  79.824  1.00  0.00     0.339 C 
ATOM     28  C   UNL     1      57.349   8.107  80.804  1.00  0.00     0.214 C 
ATOM     29  O   UNL     1      56.563   8.375  78.542  1.00  0.00    -0.332 OA
ATOM     30  C   UNL     1      58.504   7.158  80.444  1.00  0.00     0.180 C 
ATOM     31  C   UNL     1      57.685   7.715  77.956  1.00  0.00     0.179 C 
ATOM     32  C   UNL     1      58.680   6.946  78.917  1.00  0.00     0.177 C 
BRANCH  28  33
ATOM     33  O   UNL     1      57.818   9.433  80.742  1.00  0.00    -0.384 OA
ATOM     34  H   UNL     1      58.450   9.552  81.499  1.00  0.00     0.211 HD
ENDBRANCH  28  33
BRANCH  30  35
ATOM     35  O   UNL     1      58.418   5.897  81.079  1.00  0.00    -0.387 OA
ATOM     36  H   UNL     1      58.313   5.997  82.062  1.00  0.00     0.211 HD
ENDBRANCH  30  35
BRANCH  31  37
ATOM     37  C   UNL     1      58.393   8.750  77.059  1.00  0.00     0.191 C 
BRANCH  37  38
ATOM     38  O   UNL     1      58.915   9.788  77.840  1.00  0.00    -0.394 OA
ATOM     39  H   UNL     1      59.410   9.336  78.574  1.00  0.00     0.210 HD
ENDBRANCH  37  38
ENDBRANCH  31  37
BRANCH  32  40
ATOM     40  O   UNL     1      60.021   7.202  78.569  1.00  0.00    -0.387 OA
ATOM     41  H   UNL     1      60.596   6.795  79.276  1.00  0.00     0.211 HD
ENDBRANCH  32  40
ENDBRANCH   1  27
TORSDOF 12
ENDMDL
MODEL 9
REMARK VINA RESULT:    -6.423      2.259      3.857
REMARK INTER + INTRA:         -10.985
REMARK INTER:                  -9.358
REMARK INTRA:                  -1.626
REMARK UNBOUND:                -1.558
REMARK SMILES O=c1c(O[C@@H]2O[C@@H](CO)[C@@H](O)[C@H](O)[C@H]2O)c(-c2ccc(O)c(O)c2)oc2cc(O)cc(O)c12
REMARK SMILES IDX 4 1 3 2 16 3 25 4 2 5 26 6 1 7 33 8 27 9 31 10 28 11 30 12
REMARK SMILES IDX 17 13 18 14 19 15 20 16 24 17 22 18 21 19 23 21 32 23 29 25
REMARK SMILES IDX 5 27 14 28 6 29 12 30 7 31 10 32 15 33 13 35 8 37 9 38 11 40
REMARK H PARENT 21 20 23 22 32 24 29 26 15 34 13 36 9 39 11 41
REMARK Flexibility Score: inf
ROOT
ATOM      1  O   UNL     1      54.085   6.759  79.843  1.00  0.00    -0.454 OA
ENDROOT
BRANCH   1   2
ATOM      2  C   UNL     1      53.839   7.818  78.965  1.00  0.00     0.214 A 
ATOM      3  C   UNL     1      54.837   8.370  78.135  1.00  0.00     0.180 A 
ATOM      4  O   UNL     1      54.458   9.094  77.087  1.00  0.00    -0.452 OA
ATOM      5  C   UNL     1      52.529   8.304  78.862  1.00  0.00     0.239 A 
ATOM      6  C   UNL     1      53.196   9.417  76.823  1.00  0.00     0.146 A 
ATOM      7  O   UNL     1      51.720   8.017  79.779  1.00  0.00    -0.285 OA
ATOM      8  C   UNL     1      52.156   9.094  77.738  1.00  0.00     0.111 A 
ATOM      9  C   UNL     1      52.916  10.093  75.631  1.00  0.00     0.094 A 
ATOM     10  C   UNL     1      50.829   9.550  77.440  1.00  0.00     0.134 A 
ATOM     11  C   UNL     1      51.616  10.484  75.328  1.00  0.00     0.123 A 
ATOM     12  C   UNL     1      50.586  10.233  76.238  1.00  0.00     0.093 A 
BRANCH   3  13
ATOM     13  C   UNL     1      56.302   8.218  78.377  1.00  0.00     0.025 A 
ATOM     14  C   UNL     1      57.144   7.490  77.506  1.00  0.00     0.016 A 
ATOM     15  C   UNL     1      58.507   7.349  77.789  1.00  0.00     0.051 A 
ATOM     16  C   UNL     1      59.034   7.839  78.988  1.00  0.00     0.157 A 
ATOM     17  C   UNL     1      56.847   8.688  79.591  1.00  0.00     0.062 A 
ATOM     18  C   UNL     1      58.199   8.490  79.903  1.00  0.00     0.158 A 
BRANCH  16  19
ATOM     19  O   UNL     1      60.381   7.631  79.276  1.00  0.00    -0.504 OA
ATOM     20  H   UNL     1      61.054   7.461  78.540  1.00  0.00     0.293 HD
ENDBRANCH  16  19
BRANCH  18  21
ATOM     21  O   UNL     1      58.712   8.927  81.131  1.00  0.00    -0.504 OA
ATOM     22  H   UNL     1      58.494   9.842  81.493  1.00  0.00     0.293 HD
ENDBRANCH  18  21
ENDBRANCH   3  13
BRANCH  10  23
ATOM     23  O   UNL     1      49.719   9.337  78.269  1.00  0.00    -0.507 OA
ATOM     24  H   UNL     1      49.080   8.564  78.196  1.00  0.00     0.293 HD
ENDBRANCH  10  23
BRANCH  11  25
ATOM     25  O   UNL     1      51.348  11.123  74.120  1.00  0.00    -0.508 OA
ATOM     26  H   UNL     1      50.420  11.124  73.715  1.00  0.00     0.293 HD
ENDBRANCH  11  25
ENDBRANCH   1   2
BRANCH   1  27
ATOM     27  C   UNL     1      54.533   5.458  79.435  1.00  0.00     0.339 C 
ATOM     28  C   UNL     1      54.512   4.491  80.616  1.00  0.00     0.214 C 
ATOM     29  O   UNL     1      53.784   4.933  78.361  1.00  0.00    -0.332 OA
ATOM     30  C   UNL     1      53.097   4.426  81.214  1.00  0.00     0.180 C 
ATOM     31  C   UNL     1      52.406   4.688  78.640  1.00  0.00     0.179 C 
ATOM     32  C   UNL     1      51.969   4.536  80.153  1.00  0.00     0.177 C 
BRANCH  28  33
ATOM     33  O   UNL     1      54.881   3.202  80.188  1.00  0.00    -0.384 OA
ATOM     34  H   UNL     1      54.123   2.597  80.405  1.00  0.00     0.211 HD
ENDBRANCH  28  33
BRANCH  30  35
ATOM     35  O   UNL     1      52.868   5.381  82.232  1.00  0.00    -0.387 OA
ATOM     36  H   UNL     1      52.047   5.909  82.050  1.00  0.00     0.211 HD
ENDBRANCH  30  35
BRANCH  31  37
ATOM     37  C   UNL     1      51.980   3.491  77.766  1.00  0.00     0.191 C 
BRANCH  37  38
ATOM     38  O   UNL     1      52.958   2.490  77.811  1.00  0.00    -0.394 OA
ATOM     39  H   UNL     1      52.484   1.681  78.140  1.00  0.00     0.210 HD
ENDBRANCH  37  38
ENDBRANCH  31  37
BRANCH  32  40
ATOM     40  O   UNL     1      51.077   3.458  80.318  1.00  0.00    -0.387 OA
ATOM     41  H   UNL     1      50.769   3.183  79.411  1.00  0.00     0.211 HD
ENDBRANCH  32  40
ENDBRANCH   1  27
TORSDOF 12
ENDMDL
