MODEL 1
REMARK VINA RESULT:    -7.117      0.000      0.000
REMARK INTER + INTRA:         -11.089
REMARK INTER:                 -10.238
REMARK INTRA:                  -0.852
REMARK UNBOUND:                -0.852
REMARK SMILES O=c1cc(-c2ccc(O)c(O)c2)oc2cc(O[C@H]3O[C@@H](CO)[C@H](O)[C@@H](O)[C@@H]3O)cc(O)c12
REMARK SMILES IDX 17 1 16 2 4 3 3 4 13 5 2 6 14 7 1 8 32 9 15 10 30 11 29 12
REMARK SMILES IDX 5 13 6 14 7 15 8 16 12 17 10 18 9 19 11 21 31 23 18 25 27 26
REMARK SMILES IDX 19 27 25 28 20 29 23 30 28 31 26 33 21 35 22 36 24 38
REMARK H PARENT 9 20 11 22 31 24 28 32 26 34 22 37 24 39
REMARK Flexibility Score: inf
ROOT
ATOM      1  O   UNL     1      22.013   0.439  34.231  1.00  0.00    -0.462 OA
ENDROOT
BRANCH   1   2
ATOM      2  C   UNL     1      23.260   0.415  34.866  1.00  0.00     0.130 A 
ATOM      3  C   UNL     1      27.264  -1.993  35.697  1.00  0.00     0.138 A 
ATOM      4  C   UNL     1      27.393  -1.463  36.981  1.00  0.00     0.100 A 
ATOM      5  O   UNL     1      26.274  -1.591  34.916  1.00  0.00    -0.456 OA
ATOM      6  C   UNL     1      26.516  -0.460  37.401  1.00  0.00     0.197 A 
ATOM      7  C   UNL     1      25.378  -0.687  35.290  1.00  0.00     0.146 A 
ATOM      8  O   UNL     1      26.648   0.002  38.566  1.00  0.00    -0.289 OA
ATOM      9  C   UNL     1      25.493  -0.010  36.533  1.00  0.00     0.107 A 
ATOM     10  C   UNL     1      24.272  -0.459  34.464  1.00  0.00     0.094 A 
ATOM     11  C   UNL     1      24.532   0.998  36.849  1.00  0.00     0.134 A 
ATOM     12  C   UNL     1      23.440   1.207  35.998  1.00  0.00     0.093 A 
BRANCH   3  13
ATOM     13  C   UNL     1      28.188  -3.035  35.224  1.00  0.00     0.021 A 
ATOM     14  C   UNL     1      27.749  -4.023  34.338  1.00  0.00     0.016 A 
ATOM     15  C   UNL     1      28.638  -4.995  33.883  1.00  0.00     0.051 A 
ATOM     16  C   UNL     1      29.978  -4.993  34.308  1.00  0.00     0.157 A 
ATOM     17  C   UNL     1      29.522  -3.044  35.682  1.00  0.00     0.062 A 
ATOM     18  C   UNL     1      30.427  -4.000  35.202  1.00  0.00     0.158 A 
BRANCH  16  19
ATOM     19  O   UNL     1      30.858  -5.974  33.863  1.00  0.00    -0.504 OA
ATOM     20  H   UNL     1      31.656  -5.755  33.280  1.00  0.00     0.293 HD
ENDBRANCH  16  19
BRANCH  18  21
ATOM     21  O   UNL     1      31.771  -3.943  35.607  1.00  0.00    -0.504 OA
ATOM     22  H   UNL     1      32.530  -3.923  34.931  1.00  0.00     0.293 HD
ENDBRANCH  18  21
ENDBRANCH   3  13
BRANCH  11  23
ATOM     23  O   UNL     1      24.561   1.774  38.005  1.00  0.00    -0.507 OA
ATOM     24  H   UNL     1      25.382   2.199  38.397  1.00  0.00     0.293 HD
ENDBRANCH  11  23
ENDBRANCH   1   2
BRANCH   1  25
ATOM     25  C   UNL     1      21.563   1.637  33.585  1.00  0.00     0.339 C 
ATOM     26  C   UNL     1      20.213   2.032  34.209  1.00  0.00     0.214 C 
ATOM     27  O   UNL     1      21.500   1.380  32.183  1.00  0.00    -0.332 OA
ATOM     28  C   UNL     1      19.598   3.188  33.424  1.00  0.00     0.180 C 
ATOM     29  C   UNL     1      20.726   2.257  31.387  1.00  0.00     0.179 C 
ATOM     30  C   UNL     1      19.345   2.687  31.997  1.00  0.00     0.177 C 
BRANCH  26  31
ATOM     31  O   UNL     1      20.442   2.427  35.541  1.00  0.00    -0.384 OA
ATOM     32  H   UNL     1      21.335   2.884  35.563  1.00  0.00     0.211 HD
ENDBRANCH  26  31
BRANCH  28  33
ATOM     33  O   UNL     1      18.392   3.600  34.026  1.00  0.00    -0.387 OA
ATOM     34  H   UNL     1      18.401   3.252  34.959  1.00  0.00     0.211 HD
ENDBRANCH  28  33
BRANCH  29  35
ATOM     35  C   UNL     1      20.601   1.593  29.989  1.00  0.00     0.191 C 
BRANCH  35  36
ATOM     36  O   UNL     1      20.201   2.501  28.991  1.00  0.00    -0.394 OA
ATOM     37  H   UNL     1      19.344   2.907  29.295  1.00  0.00     0.210 HD
ENDBRANCH  35  36
ENDBRANCH  29  35
BRANCH  30  38
ATOM     38  O   UNL     1      18.717   3.695  31.234  1.00  0.00    -0.387 OA
ATOM     39  H   UNL     1      19.069   3.665  30.313  1.00  0.00     0.211 HD
ENDBRANCH  30  38
ENDBRANCH   1  25
TORSDOF 11
ENDMDL
MODEL 2
REMARK VINA RESULT:    -7.073      3.274      5.487
REMARK INTER + INTRA:         -11.026
REMARK INTER:                 -10.246
REMARK INTRA:                  -0.780
REMARK UNBOUND:                -0.852
REMARK SMILES O=c1cc(-c2ccc(O)c(O)c2)oc2cc(O[C@H]3O[C@@H](CO)[C@H](O)[C@@H](O)[C@@H]3O)cc(O)c12
REMARK SMILES IDX 17 1 16 2 4 3 3 4 13 5 2 6 14 7 1 8 32 9 15 10 30 11 29 12
REMARK SMILES IDX 5 13 6 14 7 15 8 16 12 17 10 18 9 19 11 21 31 23 18 25 27 26
REMARK SMILES IDX 19 27 25 28 20 29 23 30 28 31 26 33 21 35 22 36 24 38
REMARK H PARENT 9 20 11 22 31 24 28 32 26 34 22 37 24 39
REMARK Flexibility Score: inf
ROOT
ATOM      1  O   UNL     1      24.031   1.872  37.420  1.00  0.00    -0.462 OA
ENDROOT
BRANCH   1   2
ATOM      2  C   UNL     1      24.113   0.580  36.890  1.00  0.00     0.130 A 
ATOM      3  C   UNL     1      26.865  -2.778  34.974  1.00  0.00     0.138 A 
ATOM      4  C   UNL     1      25.831  -3.258  34.169  1.00  0.00     0.100 A 
ATOM      5  O   UNL     1      26.630  -1.798  35.832  1.00  0.00    -0.456 OA
ATOM      6  C   UNL     1      24.541  -2.747  34.332  1.00  0.00     0.197 A 
ATOM      7  C   UNL     1      25.437  -1.236  35.980  1.00  0.00     0.146 A 
ATOM      8  O   UNL     1      23.624  -3.192  33.592  1.00  0.00    -0.289 OA
ATOM      9  C   UNL     1      24.301  -1.733  35.289  1.00  0.00     0.107 A 
ATOM     10  C   UNL     1      25.330  -0.096  36.784  1.00  0.00     0.094 A 
ATOM     11  C   UNL     1      23.034  -1.125  35.541  1.00  0.00     0.134 A 
ATOM     12  C   UNL     1      22.958   0.012  36.354  1.00  0.00     0.093 A 
BRANCH   3  13
ATOM     13  C   UNL     1      28.228  -3.314  34.836  1.00  0.00     0.021 A 
ATOM     14  C   UNL     1      29.238  -2.918  35.718  1.00  0.00     0.016 A 
ATOM     15  C   UNL     1      30.522  -3.447  35.588  1.00  0.00     0.051 A 
ATOM     16  C   UNL     1      30.812  -4.378  34.576  1.00  0.00     0.157 A 
ATOM     17  C   UNL     1      28.517  -4.224  33.798  1.00  0.00     0.062 A 
ATOM     18  C   UNL     1      29.797  -4.781  33.684  1.00  0.00     0.158 A 
BRANCH  16  19
ATOM     19  O   UNL     1      32.098  -4.892  34.441  1.00  0.00    -0.504 OA
ATOM     20  H   UNL     1      32.268  -5.830  34.102  1.00  0.00     0.293 HD
ENDBRANCH  16  19
BRANCH  18  21
ATOM     21  O   UNL     1      30.044  -5.747  32.694  1.00  0.00    -0.504 OA
ATOM     22  H   UNL     1      30.084  -5.501  31.709  1.00  0.00     0.293 HD
ENDBRANCH  18  21
ENDBRANCH   3  13
BRANCH  11  23
ATOM     23  O   UNL     1      21.834  -1.549  34.974  1.00  0.00    -0.507 OA
ATOM     24  H   UNL     1      21.455  -1.218  34.105  1.00  0.00     0.293 HD
ENDBRANCH  11  23
ENDBRANCH   1   2
BRANCH   1  25
ATOM     25  C   UNL     1      22.897   2.251  38.210  1.00  0.00     0.339 C 
ATOM     26  C   UNL     1      22.425   3.633  37.728  1.00  0.00     0.214 C 
ATOM     27  O   UNL     1      23.290   2.220  39.581  1.00  0.00    -0.332 OA
ATOM     28  C   UNL     1      21.343   4.168  38.664  1.00  0.00     0.180 C 
ATOM     29  C   UNL     1      22.485   2.917  40.513  1.00  0.00     0.179 C 
ATOM     30  C   UNL     1      21.979   4.329  40.050  1.00  0.00     0.177 C 
BRANCH  26  31
ATOM     31  O   UNL     1      21.904   3.492  36.427  1.00  0.00    -0.384 OA
ATOM     32  H   UNL     1      22.064   4.361  35.950  1.00  0.00     0.211 HD
ENDBRANCH  26  31
BRANCH  28  33
ATOM     33  O   UNL     1      20.859   5.405  38.193  1.00  0.00    -0.387 OA
ATOM     34  H   UNL     1      20.346   5.818  38.940  1.00  0.00     0.211 HD
ENDBRANCH  28  33
BRANCH  29  35
ATOM     35  C   UNL     1      23.281   2.956  41.846  1.00  0.00     0.191 C 
BRANCH  35  36
ATOM     36  O   UNL     1      23.234   1.735  42.542  1.00  0.00    -0.394 OA
ATOM     37  H   UNL     1      22.979   1.946  43.482  1.00  0.00     0.210 HD
ENDBRANCH  35  36
ENDBRANCH  29  35
BRANCH  30  38
ATOM     38  O   UNL     1      21.043   4.881  40.951  1.00  0.00    -0.387 OA
ATOM     39  H   UNL     1      20.177   4.424  40.832  1.00  0.00     0.211 HD
ENDBRANCH  30  38
ENDBRANCH   1  25
TORSDOF 11
ENDMDL
MODEL 3
REMARK VINA RESULT:    -6.964      2.111     10.189
REMARK INTER + INTRA:         -10.868
REMARK INTER:                  -9.887
REMARK INTRA:                  -0.981
REMARK UNBOUND:                -0.852
REMARK SMILES O=c1cc(-c2ccc(O)c(O)c2)oc2cc(O[C@H]3O[C@@H](CO)[C@H](O)[C@@H](O)[C@@H]3O)cc(O)c12
REMARK SMILES IDX 17 1 16 2 4 3 3 4 13 5 2 6 14 7 1 8 32 9 15 10 30 11 29 12
REMARK SMILES IDX 5 13 6 14 7 15 8 16 12 17 10 18 9 19 11 21 31 23 18 25 27 26
REMARK SMILES IDX 19 27 25 28 20 29 23 30 28 31 26 33 21 35 22 36 24 38
REMARK H PARENT 9 20 11 22 31 24 28 32 26 34 22 37 24 39
REMARK Flexibility Score: inf
ROOT
ATOM      1  O   UNL     1      29.761  -4.222  35.283  1.00  0.00    -0.462 OA
ENDROOT
BRANCH   1   2
ATOM      2  C   UNL     1      28.690  -3.451  35.747  1.00  0.00     0.130 A 
ATOM      3  C   UNL     1      25.493  -0.079  34.786  1.00  0.00     0.138 A 
ATOM      4  C   UNL     1      25.506   0.399  36.097  1.00  0.00     0.100 A 
ATOM      5  O   UNL     1      26.213  -1.142  34.466  1.00  0.00    -0.456 OA
ATOM      6  C   UNL     1      26.224  -0.295  37.073  1.00  0.00     0.197 A 
ATOM      7  C   UNL     1      26.961  -1.800  35.342  1.00  0.00     0.146 A 
ATOM      8  O   UNL     1      26.225   0.156  38.249  1.00  0.00    -0.289 OA
ATOM      9  C   UNL     1      26.949  -1.458  36.720  1.00  0.00     0.107 A 
ATOM     10  C   UNL     1      27.818  -2.800  34.872  1.00  0.00     0.094 A 
ATOM     11  C   UNL     1      27.727  -2.246  37.621  1.00  0.00     0.134 A 
ATOM     12  C   UNL     1      28.572  -3.244  37.120  1.00  0.00     0.093 A 
BRANCH   3  13
ATOM     13  C   UNL     1      24.727   0.623  33.744  1.00  0.00     0.021 A 
ATOM     14  C   UNL     1      25.368   1.115  32.603  1.00  0.00     0.016 A 
ATOM     15  C   UNL     1      24.629   1.763  31.614  1.00  0.00     0.051 A 
ATOM     16  C   UNL     1      23.240   1.927  31.753  1.00  0.00     0.157 A 
ATOM     17  C   UNL     1      23.339   0.811  33.907  1.00  0.00     0.062 A 
ATOM     18  C   UNL     1      22.588   1.433  32.900  1.00  0.00     0.158 A 
BRANCH  16  19
ATOM     19  O   UNL     1      22.509   2.588  30.770  1.00  0.00    -0.504 OA
ATOM     20  H   UNL     1      21.539   2.367  30.584  1.00  0.00     0.293 HD
ENDBRANCH  16  19
BRANCH  18  21
ATOM     21  O   UNL     1      21.194   1.538  33.044  1.00  0.00    -0.504 OA
ATOM     22  H   UNL     1      20.678   2.325  32.661  1.00  0.00     0.293 HD
ENDBRANCH  18  21
ENDBRANCH   3  13
BRANCH  11  23
ATOM     23  O   UNL     1      27.762  -2.054  39.001  1.00  0.00    -0.507 OA
ATOM     24  H   UNL     1      28.544  -1.691  39.516  1.00  0.00     0.293 HD
ENDBRANCH  11  23
ENDBRANCH   1   2
BRANCH   1  25
ATOM     25  C   UNL     1      30.774  -3.621  34.467  1.00  0.00     0.339 C 
ATOM     26  C   UNL     1      31.187  -4.645  33.395  1.00  0.00     0.214 C 
ATOM     27  O   UNL     1      31.841  -3.217  35.322  1.00  0.00    -0.332 OA
ATOM     28  C   UNL     1      32.398  -4.127  32.623  1.00  0.00     0.180 C 
ATOM     29  C   UNL     1      33.100  -2.962  34.729  1.00  0.00     0.179 C 
ATOM     30  C   UNL     1      33.550  -3.983  33.625  1.00  0.00     0.177 C 
BRANCH  26  31
ATOM     31  O   UNL     1      30.102  -4.825  32.516  1.00  0.00    -0.384 OA
ATOM     32  H   UNL     1      29.571  -5.604  32.859  1.00  0.00     0.211 HD
ENDBRANCH  26  31
BRANCH  28  33
ATOM     33  O   UNL     1      32.744  -5.028  31.597  1.00  0.00    -0.387 OA
ATOM     34  H   UNL     1      33.723  -5.196  31.676  1.00  0.00     0.211 HD
ENDBRANCH  28  33
BRANCH  29  35
ATOM     35  C   UNL     1      34.120  -2.825  35.892  1.00  0.00     0.191 C 
BRANCH  35  36
ATOM     36  O   UNL     1      34.894  -3.986  36.076  1.00  0.00    -0.394 OA
ATOM     37  H   UNL     1      35.782  -3.691  36.416  1.00  0.00     0.210 HD
ENDBRANCH  35  36
ENDBRANCH  29  35
BRANCH  30  38
ATOM     38  O   UNL     1      34.723  -3.565  32.959  1.00  0.00    -0.387 OA
ATOM     39  H   UNL     1      35.327  -3.141  33.612  1.00  0.00     0.211 HD
ENDBRANCH  30  38
ENDBRANCH   1  25
TORSDOF 11
ENDMDL
MODEL 4
REMARK VINA RESULT:    -6.937      3.643      6.355
REMARK INTER + INTRA:         -10.830
REMARK INTER:                 -10.012
REMARK INTRA:                  -0.818
REMARK UNBOUND:                -0.852
REMARK SMILES O=c1cc(-c2ccc(O)c(O)c2)oc2cc(O[C@H]3O[C@@H](CO)[C@H](O)[C@@H](O)[C@@H]3O)cc(O)c12
REMARK SMILES IDX 17 1 16 2 4 3 3 4 13 5 2 6 14 7 1 8 32 9 15 10 30 11 29 12
REMARK SMILES IDX 5 13 6 14 7 15 8 16 12 17 10 18 9 19 11 21 31 23 18 25 27 26
REMARK SMILES IDX 19 27 25 28 20 29 23 30 28 31 26 33 21 35 22 36 24 38
REMARK H PARENT 9 20 11 22 31 24 28 32 26 34 22 37 24 39
REMARK Flexibility Score: inf
ROOT
ATOM      1  O   UNL     1      25.913   2.207  38.298  1.00  0.00    -0.462 OA
ENDROOT
BRANCH   1   2
ATOM      2  C   UNL     1      25.635   1.018  37.615  1.00  0.00     0.130 A 
ATOM      3  C   UNL     1      27.338  -2.638  35.114  1.00  0.00     0.138 A 
ATOM      4  C   UNL     1      26.181  -2.732  34.340  1.00  0.00     0.100 A 
ATOM      5  O   UNL     1      27.402  -1.754  36.097  1.00  0.00    -0.456 OA
ATOM      6  C   UNL     1      25.076  -1.940  34.659  1.00  0.00     0.197 A 
ATOM      7  C   UNL     1      26.403  -0.935  36.400  1.00  0.00     0.146 A 
ATOM      8  O   UNL     1      24.043  -2.038  33.944  1.00  0.00    -0.289 OA
ATOM      9  C   UNL     1      25.148  -1.035  35.744  1.00  0.00     0.107 A 
ATOM     10  C   UNL     1      26.630   0.078  37.338  1.00  0.00     0.094 A 
ATOM     11  C   UNL     1      24.093  -0.166  36.161  1.00  0.00     0.134 A 
ATOM     12  C   UNL     1      24.350   0.834  37.106  1.00  0.00     0.093 A 
BRANCH   3  13
ATOM     13  C   UNL     1      28.508  -3.476  34.811  1.00  0.00     0.021 A 
ATOM     14  C   UNL     1      28.396  -4.564  33.940  1.00  0.00     0.016 A 
ATOM     15  C   UNL     1      29.516  -5.341  33.647  1.00  0.00     0.051 A 
ATOM     16  C   UNL     1      30.763  -5.040  34.221  1.00  0.00     0.157 A 
ATOM     17  C   UNL     1      29.749  -3.186  35.417  1.00  0.00     0.062 A 
ATOM     18  C   UNL     1      30.883  -3.945  35.100  1.00  0.00     0.158 A 
BRANCH  16  19
ATOM     19  O   UNL     1      31.875  -5.827  33.938  1.00  0.00    -0.504 OA
ATOM     20  H   UNL     1      32.620  -5.964  34.609  1.00  0.00     0.293 HD
ENDBRANCH  16  19
BRANCH  18  21
ATOM     21  O   UNL     1      32.127  -3.590  35.651  1.00  0.00    -0.504 OA
ATOM     22  H   UNL     1      32.882  -3.233  35.073  1.00  0.00     0.293 HD
ENDBRANCH  18  21
ENDBRANCH   3  13
BRANCH  11  23
ATOM     23  O   UNL     1      22.801  -0.197  35.641  1.00  0.00    -0.507 OA
ATOM     24  H   UNL     1      22.532  -0.643  34.783  1.00  0.00     0.293 HD
ENDBRANCH  11  23
ENDBRANCH   1   2
BRANCH   1  25
ATOM     25  C   UNL     1      24.904   2.818  39.111  1.00  0.00     0.339 C 
ATOM     26  C   UNL     1      25.187   4.329  39.161  1.00  0.00     0.214 C 
ATOM     27  O   UNL     1      24.928   2.183  40.388  1.00  0.00    -0.332 OA
ATOM     28  C   UNL     1      24.258   4.998  40.171  1.00  0.00     0.180 C 
ATOM     29  C   UNL     1      24.312   2.854  41.470  1.00  0.00     0.179 C 
ATOM     30  C   UNL     1      24.574   4.400  41.547  1.00  0.00     0.177 C 
BRANCH  26  31
ATOM     31  O   UNL     1      24.962   4.863  37.878  1.00  0.00    -0.384 OA
ATOM     32  H   UNL     1      24.264   5.578  37.975  1.00  0.00     0.211 HD
ENDBRANCH  26  31
BRANCH  28  33
ATOM     33  O   UNL     1      24.466   6.392  40.176  1.00  0.00    -0.387 OA
ATOM     34  H   UNL     1      23.926   6.763  40.926  1.00  0.00     0.211 HD
ENDBRANCH  28  33
BRANCH  29  35
ATOM     35  C   UNL     1      24.728   2.095  42.759  1.00  0.00     0.191 C 
BRANCH  35  36
ATOM     36  O   UNL     1      25.469   0.931  42.489  1.00  0.00    -0.394 OA
ATOM     37  H   UNL     1      25.993   0.723  43.311  1.00  0.00     0.210 HD
ENDBRANCH  35  36
ENDBRANCH  29  35
BRANCH  30  38
ATOM     38  O   UNL     1      23.787   5.025  42.539  1.00  0.00    -0.387 OA
ATOM     39  H   UNL     1      23.047   5.508  42.102  1.00  0.00     0.211 HD
ENDBRANCH  30  38
ENDBRANCH   1  25
TORSDOF 11
ENDMDL
MODEL 5
REMARK VINA RESULT:    -6.847      3.790      6.568
REMARK INTER + INTRA:         -10.701
REMARK INTER:                  -9.730
REMARK INTRA:                  -0.972
REMARK UNBOUND:                -0.852
REMARK SMILES O=c1cc(-c2ccc(O)c(O)c2)oc2cc(O[C@H]3O[C@@H](CO)[C@H](O)[C@@H](O)[C@@H]3O)cc(O)c12
REMARK SMILES IDX 17 1 16 2 4 3 3 4 13 5 2 6 14 7 1 8 32 9 15 10 30 11 29 12
REMARK SMILES IDX 5 13 6 14 7 15 8 16 12 17 10 18 9 19 11 21 31 23 18 25 27 26
REMARK SMILES IDX 19 27 25 28 20 29 23 30 28 31 26 33 21 35 22 36 24 38
REMARK H PARENT 9 20 11 22 31 24 28 32 26 34 22 37 24 39
REMARK Flexibility Score: inf
ROOT
ATOM      1  O   UNL     1      25.594   1.805  37.245  1.00  0.00    -0.462 OA
ENDROOT
BRANCH   1   2
ATOM      2  C   UNL     1      25.505   0.505  36.735  1.00  0.00     0.130 A 
ATOM      3  C   UNL     1      27.758  -3.141  34.698  1.00  0.00     0.138 A 
ATOM      4  C   UNL     1      26.626  -3.521  33.975  1.00  0.00     0.100 A 
ATOM      5  O   UNL     1      27.685  -2.132  35.551  1.00  0.00    -0.456 OA
ATOM      6  C   UNL     1      25.411  -2.877  34.216  1.00  0.00     0.197 A 
ATOM      7  C   UNL     1      26.570  -1.449  35.770  1.00  0.00     0.146 A 
ATOM      8  O   UNL     1      24.402  -3.234  33.550  1.00  0.00    -0.289 OA
ATOM      9  C   UNL     1      25.343  -1.833  35.168  1.00  0.00     0.107 A 
ATOM     10  C   UNL     1      26.636  -0.294  36.558  1.00  0.00     0.094 A 
ATOM     11  C   UNL     1      24.165  -1.094  35.495  1.00  0.00     0.134 A 
ATOM     12  C   UNL     1      24.264   0.054  36.290  1.00  0.00     0.093 A 
BRANCH   3  13
ATOM     13  C   UNL     1      29.046  -3.817  34.477  1.00  0.00     0.021 A 
ATOM     14  C   UNL     1      29.151  -4.857  33.548  1.00  0.00     0.016 A 
ATOM     15  C   UNL     1      30.381  -5.478  33.335  1.00  0.00     0.051 A 
ATOM     16  C   UNL     1      31.521  -5.068  34.048  1.00  0.00     0.157 A 
ATOM     17  C   UNL     1      30.177  -3.421  35.221  1.00  0.00     0.062 A 
ATOM     18  C   UNL     1      31.421  -4.021  34.987  1.00  0.00     0.158 A 
BRANCH  16  19
ATOM     19  O   UNL     1      32.743  -5.702  33.844  1.00  0.00    -0.504 OA
ATOM     20  H   UNL     1      33.532  -5.558  34.462  1.00  0.00     0.293 HD
ENDBRANCH  16  19
BRANCH  18  21
ATOM     21  O   UNL     1      32.553  -3.557  35.679  1.00  0.00    -0.504 OA
ATOM     22  H   UNL     1      32.478  -2.861  36.415  1.00  0.00     0.293 HD
ENDBRANCH  18  21
ENDBRANCH   3  13
BRANCH  11  23
ATOM     23  O   UNL     1      22.891  -1.399  35.019  1.00  0.00    -0.507 OA
ATOM     24  H   UNL     1      22.056  -1.422  35.575  1.00  0.00     0.293 HD
ENDBRANCH  11  23
ENDBRANCH   1   2
BRANCH   1  25
ATOM     25  C   UNL     1      25.911   2.011  38.627  1.00  0.00     0.339 C 
ATOM     26  C   UNL     1      24.948   3.076  39.180  1.00  0.00     0.214 C 
ATOM     27  O   UNL     1      27.287   2.376  38.711  1.00  0.00    -0.332 OA
ATOM     28  C   UNL     1      25.369   3.472  40.593  1.00  0.00     0.180 C 
ATOM     29  C   UNL     1      27.732   3.001  39.899  1.00  0.00     0.179 C 
ATOM     30  C   UNL     1      26.770   4.088  40.495  1.00  0.00     0.177 C 
BRANCH  26  31
ATOM     31  O   UNL     1      23.651   2.529  39.204  1.00  0.00    -0.384 OA
ATOM     32  H   UNL     1      23.526   2.107  40.107  1.00  0.00     0.211 HD
ENDBRANCH  26  31
BRANCH  28  33
ATOM     33  O   UNL     1      24.456   4.401  41.132  1.00  0.00    -0.387 OA
ATOM     34  H   UNL     1      24.656   4.474  42.104  1.00  0.00     0.211 HD
ENDBRANCH  28  33
BRANCH  29  35
ATOM     35  C   UNL     1      29.161   3.535  39.612  1.00  0.00     0.191 C 
BRANCH  35  36
ATOM     36  O   UNL     1      29.962   3.593  40.768  1.00  0.00    -0.394 OA
ATOM     37  H   UNL     1      30.678   4.263  40.591  1.00  0.00     0.210 HD
ENDBRANCH  35  36
ENDBRANCH  29  35
BRANCH  30  38
ATOM     38  O   UNL     1      27.192   4.535  41.767  1.00  0.00    -0.387 OA
ATOM     39  H   UNL     1      26.569   4.192  42.449  1.00  0.00     0.211 HD
ENDBRANCH  30  38
ENDBRANCH   1  25
TORSDOF 11
ENDMDL
MODEL 6
REMARK VINA RESULT:    -6.708      4.068      7.130
REMARK INTER + INTRA:         -10.500
REMARK INTER:                  -9.719
REMARK INTRA:                  -0.781
REMARK UNBOUND:                -0.852
REMARK SMILES O=c1cc(-c2ccc(O)c(O)c2)oc2cc(O[C@H]3O[C@@H](CO)[C@H](O)[C@@H](O)[C@@H]3O)cc(O)c12
REMARK SMILES IDX 17 1 16 2 4 3 3 4 13 5 2 6 14 7 1 8 32 9 15 10 30 11 29 12
REMARK SMILES IDX 5 13 6 14 7 15 8 16 12 17 10 18 9 19 11 21 31 23 18 25 27 26
REMARK SMILES IDX 19 27 25 28 20 29 23 30 28 31 26 33 21 35 22 36 24 38
REMARK H PARENT 9 20 11 22 31 24 28 32 26 34 22 37 24 39
REMARK Flexibility Score: inf
ROOT
ATOM      1  O   UNL     1      22.665   4.165  38.912  1.00  0.00    -0.462 OA
ENDROOT
BRANCH   1   2
ATOM      2  C   UNL     1      22.399   3.180  37.955  1.00  0.00     0.130 A 
ATOM      3  C   UNL     1      24.136  -0.245  35.168  1.00  0.00     0.138 A 
ATOM      4  C   UNL     1      23.199   0.005  34.165  1.00  0.00     0.100 A 
ATOM      5  O   UNL     1      24.083   0.433  36.303  1.00  0.00    -0.456 OA
ATOM      6  C   UNL     1      22.170   0.918  34.401  1.00  0.00     0.197 A 
ATOM      7  C   UNL     1      23.162   1.355  36.552  1.00  0.00     0.146 A 
ATOM      8  O   UNL     1      21.337   1.132  33.481  1.00  0.00    -0.289 OA
ATOM      9  C   UNL     1      22.101   1.598  35.641  1.00  0.00     0.107 A 
ATOM     10  C   UNL     1      23.293   2.137  37.706  1.00  0.00     0.094 A 
ATOM     11  C   UNL     1      21.107   2.559  35.996  1.00  0.00     0.134 A 
ATOM     12  C   UNL     1      21.263   3.322  37.160  1.00  0.00     0.093 A 
BRANCH   3  13
ATOM     13  C   UNL     1      25.219  -1.219  34.952  1.00  0.00     0.021 A 
ATOM     14  C   UNL     1      25.130  -2.161  33.923  1.00  0.00     0.016 A 
ATOM     15  C   UNL     1      26.170  -3.067  33.717  1.00  0.00     0.051 A 
ATOM     16  C   UNL     1      27.311  -3.042  34.537  1.00  0.00     0.157 A 
ATOM     17  C   UNL     1      26.346  -1.206  35.800  1.00  0.00     0.062 A 
ATOM     18  C   UNL     1      27.407  -2.094  35.576  1.00  0.00     0.158 A 
BRANCH  16  19
ATOM     19  O   UNL     1      28.340  -3.957  34.337  1.00  0.00    -0.504 OA
ATOM     20  H   UNL     1      29.077  -3.798  33.661  1.00  0.00     0.293 HD
ENDBRANCH  16  19
BRANCH  18  21
ATOM     21  O   UNL     1      28.557  -2.012  36.380  1.00  0.00    -0.504 OA
ATOM     22  H   UNL     1      29.400  -2.533  36.157  1.00  0.00     0.293 HD
ENDBRANCH  18  21
ENDBRANCH   3  13
BRANCH  11  23
ATOM     23  O   UNL     1      19.987   2.852  35.221  1.00  0.00    -0.507 OA
ATOM     24  H   UNL     1      19.944   2.793  34.220  1.00  0.00     0.293 HD
ENDBRANCH  11  23
ENDBRANCH   1   2
BRANCH   1  25
ATOM     25  C   UNL     1      22.047   4.094  40.203  1.00  0.00     0.339 C 
ATOM     26  C   UNL     1      21.929   5.527  40.750  1.00  0.00     0.214 C 
ATOM     27  O   UNL     1      22.833   3.227  41.017  1.00  0.00    -0.332 OA
ATOM     28  C   UNL     1      21.456   5.491  42.202  1.00  0.00     0.180 C 
ATOM     29  C   UNL     1      22.658   3.301  42.419  1.00  0.00     0.179 C 
ATOM     30  C   UNL     1      22.526   4.749  43.011  1.00  0.00     0.177 C 
BRANCH  26  31
ATOM     31  O   UNL     1      20.995   6.225  39.961  1.00  0.00    -0.384 OA
ATOM     32  H   UNL     1      20.569   5.555  39.347  1.00  0.00     0.211 HD
ENDBRANCH  26  31
BRANCH  28  33
ATOM     33  O   UNL     1      21.283   6.801  42.692  1.00  0.00    -0.387 OA
ATOM     34  H   UNL     1      21.051   6.721  43.657  1.00  0.00     0.211 HD
ENDBRANCH  28  33
BRANCH  29  35
ATOM     35  C   UNL     1      23.812   2.479  43.055  1.00  0.00     0.191 C 
BRANCH  35  36
ATOM     36  O   UNL     1      23.658   1.093  42.870  1.00  0.00    -0.394 OA
ATOM     37  H   UNL     1      24.131   0.859  42.026  1.00  0.00     0.210 HD
ENDBRANCH  35  36
ENDBRANCH  29  35
BRANCH  30  38
ATOM     38  O   UNL     1      22.176   4.735  44.379  1.00  0.00    -0.387 OA
ATOM     39  H   UNL     1      22.914   5.129  44.901  1.00  0.00     0.211 HD
ENDBRANCH  30  38
ENDBRANCH   1  25
TORSDOF 11
ENDMDL
MODEL 7
REMARK VINA RESULT:    -6.591      5.241     10.236
REMARK INTER + INTRA:         -10.332
REMARK INTER:                  -9.355
REMARK INTRA:                  -0.978
REMARK UNBOUND:                -0.852
REMARK SMILES O=c1cc(-c2ccc(O)c(O)c2)oc2cc(O[C@H]3O[C@@H](CO)[C@H](O)[C@@H](O)[C@@H]3O)cc(O)c12
REMARK SMILES IDX 17 1 16 2 4 3 3 4 13 5 2 6 14 7 1 8 32 9 15 10 30 11 29 12
REMARK SMILES IDX 5 13 6 14 7 15 8 16 12 17 10 18 9 19 11 21 31 23 18 25 27 26
REMARK SMILES IDX 19 27 25 28 20 29 23 30 28 31 26 33 21 35 22 36 24 38
REMARK H PARENT 9 20 11 22 31 24 28 32 26 34 22 37 24 39
REMARK Flexibility Score: inf
ROOT
ATOM      1  O   UNL     1      25.678   1.829  37.205  1.00  0.00    -0.462 OA
ENDROOT
BRANCH   1   2
ATOM      2  C   UNL     1      25.608   2.426  38.469  1.00  0.00     0.130 A 
ATOM      3  C   UNL     1      23.035   4.967  41.541  1.00  0.00     0.138 A 
ATOM      4  C   UNL     1      24.164   5.592  42.070  1.00  0.00     0.100 A 
ATOM      5  O   UNL     1      23.173   4.035  40.612  1.00  0.00    -0.456 OA
ATOM      6  C   UNL     1      25.433   5.175  41.664  1.00  0.00     0.197 A 
ATOM      7  C   UNL     1      24.354   3.646  40.148  1.00  0.00     0.146 A 
ATOM      8  O   UNL     1      26.439   5.756  42.152  1.00  0.00    -0.289 OA
ATOM      9  C   UNL     1      25.561   4.142  40.705  1.00  0.00     0.107 A 
ATOM     10  C   UNL     1      24.388   2.783  39.047  1.00  0.00     0.094 A 
ATOM     11  C   UNL     1      26.799   3.637  40.202  1.00  0.00     0.134 A 
ATOM     12  C   UNL     1      26.800   2.770  39.103  1.00  0.00     0.093 A 
BRANCH   3  13
ATOM     13  C   UNL     1      21.687   5.374  41.969  1.00  0.00     0.021 A 
ATOM     14  C   UNL     1      21.442   5.730  43.298  1.00  0.00     0.016 A 
ATOM     15  C   UNL     1      20.164   6.131  43.687  1.00  0.00     0.051 A 
ATOM     16  C   UNL     1      19.116   6.182  42.752  1.00  0.00     0.157 A 
ATOM     17  C   UNL     1      20.634   5.392  41.030  1.00  0.00     0.062 A 
ATOM     18  C   UNL     1      19.357   5.825  41.410  1.00  0.00     0.158 A 
BRANCH  16  19
ATOM     19  O   UNL     1      17.839   6.569  43.148  1.00  0.00    -0.504 OA
ATOM     20  H   UNL     1      17.032   6.449  42.549  1.00  0.00     0.293 HD
ENDBRANCH  16  19
BRANCH  18  21
ATOM     21  O   UNL     1      18.342   5.913  40.443  1.00  0.00    -0.504 OA
ATOM     22  H   UNL     1      18.351   5.334  39.608  1.00  0.00     0.293 HD
ENDBRANCH  18  21
ENDBRANCH   3  13
BRANCH  11  23
ATOM     23  O   UNL     1      28.051   3.997  40.697  1.00  0.00    -0.507 OA
ATOM     24  H   UNL     1      28.241   4.284  41.640  1.00  0.00     0.293 HD
ENDBRANCH  11  23
ENDBRANCH   1   2
BRANCH   1  25
ATOM     25  C   UNL     1      25.456   0.420  37.067  1.00  0.00     0.339 C 
ATOM     26  C   UNL     1      26.536  -0.138  36.122  1.00  0.00     0.214 C 
ATOM     27  O   UNL     1      24.123   0.231  36.597  1.00  0.00    -0.332 OA
ATOM     28  C   UNL     1      26.228  -1.596  35.788  1.00  0.00     0.180 C 
ATOM     29  C   UNL     1      23.799  -1.018  36.018  1.00  0.00     0.179 C 
ATOM     30  C   UNL     1      24.882  -1.621  35.055  1.00  0.00     0.177 C 
BRANCH  26  31
ATOM     31  O   UNL     1      27.780  -0.050  36.774  1.00  0.00    -0.384 OA
ATOM     32  H   UNL     1      28.373   0.522  36.200  1.00  0.00     0.211 HD
ENDBRANCH  26  31
BRANCH  28  33
ATOM     33  O   UNL     1      27.245  -2.134  34.974  1.00  0.00    -0.387 OA
ATOM     34  H   UNL     1      28.111  -1.945  35.429  1.00  0.00     0.211 HD
ENDBRANCH  28  33
BRANCH  29  35
ATOM     35  C   UNL     1      22.407  -0.852  35.352  1.00  0.00     0.191 C 
BRANCH  35  36
ATOM     36  O   UNL     1      21.857  -2.075  34.927  1.00  0.00    -0.394 OA
ATOM     37  H   UNL     1      21.154  -2.323  35.589  1.00  0.00     0.210 HD
ENDBRANCH  35  36
ENDBRANCH  29  35
BRANCH  30  38
ATOM     38  O   UNL     1      24.569  -2.940  34.661  1.00  0.00    -0.387 OA
ATOM     39  H   UNL     1      25.027  -3.571  35.265  1.00  0.00     0.211 HD
ENDBRANCH  30  38
ENDBRANCH   1  25
TORSDOF 11
ENDMDL
MODEL 8
REMARK VINA RESULT:    -6.565      2.079      3.958
REMARK INTER + INTRA:         -10.295
REMARK INTER:                  -9.282
REMARK INTRA:                  -1.013
REMARK UNBOUND:                -0.852
REMARK SMILES O=c1cc(-c2ccc(O)c(O)c2)oc2cc(O[C@H]3O[C@@H](CO)[C@H](O)[C@@H](O)[C@@H]3O)cc(O)c12
REMARK SMILES IDX 17 1 16 2 4 3 3 4 13 5 2 6 14 7 1 8 32 9 15 10 30 11 29 12
REMARK SMILES IDX 5 13 6 14 7 15 8 16 12 17 10 18 9 19 11 21 31 23 18 25 27 26
REMARK SMILES IDX 19 27 25 28 20 29 23 30 28 31 26 33 21 35 22 36 24 38
REMARK H PARENT 9 20 11 22 31 24 28 32 26 34 22 37 24 39
REMARK Flexibility Score: inf
ROOT
ATOM      1  O   UNL     1      19.897   3.024  32.565  1.00  0.00    -0.462 OA
ENDROOT
BRANCH   1   2
ATOM      2  C   UNL     1      20.715   2.665  33.642  1.00  0.00     0.130 A 
ATOM      3  C   UNL     1      23.962  -0.342  35.355  1.00  0.00     0.138 A 
ATOM      4  C   UNL     1      23.473  -0.231  36.657  1.00  0.00     0.100 A 
ATOM      5  O   UNL     1      23.428   0.386  34.387  1.00  0.00    -0.456 OA
ATOM      6  C   UNL     1      22.473   0.703  36.937  1.00  0.00     0.197 A 
ATOM      7  C   UNL     1      22.434   1.242  34.590  1.00  0.00     0.146 A 
ATOM      8  O   UNL     1      22.044   0.784  38.119  1.00  0.00    -0.289 OA
ATOM      9  C   UNL     1      21.949   1.507  35.897  1.00  0.00     0.107 A 
ATOM     10  C   UNL     1      21.824   1.833  33.478  1.00  0.00     0.094 A 
ATOM     11  C   UNL     1      20.920   2.485  36.054  1.00  0.00     0.134 A 
ATOM     12  C   UNL     1      20.333   3.063  34.922  1.00  0.00     0.093 A 
BRANCH   3  13
ATOM     13  C   UNL     1      25.030  -1.303  35.038  1.00  0.00     0.021 A 
ATOM     14  C   UNL     1      24.909  -2.162  33.942  1.00  0.00     0.016 A 
ATOM     15  C   UNL     1      25.935  -3.056  33.641  1.00  0.00     0.051 A 
ATOM     16  C   UNL     1      27.095  -3.104  34.434  1.00  0.00     0.157 A 
ATOM     17  C   UNL     1      26.176  -1.367  35.858  1.00  0.00     0.062 A 
ATOM     18  C   UNL     1      27.223  -2.242  35.541  1.00  0.00     0.158 A 
BRANCH  16  19
ATOM     19  O   UNL     1      28.110  -4.009  34.139  1.00  0.00    -0.504 OA
ATOM     20  H   UNL     1      28.913  -4.130  34.743  1.00  0.00     0.293 HD
ENDBRANCH  16  19
BRANCH  18  21
ATOM     21  O   UNL     1      28.391  -2.232  36.322  1.00  0.00    -0.504 OA
ATOM     22  H   UNL     1      29.313  -2.301  35.901  1.00  0.00     0.293 HD
ENDBRANCH  18  21
ENDBRANCH   3  13
BRANCH  11  23
ATOM     23  O   UNL     1      20.395   2.880  37.282  1.00  0.00    -0.507 OA
ATOM     24  H   UNL     1      19.607   3.490  37.406  1.00  0.00     0.293 HD
ENDBRANCH  11  23
ENDBRANCH   1   2
BRANCH   1  25
ATOM     25  C   UNL     1      20.026   2.342  31.311  1.00  0.00     0.339 C 
ATOM     26  C   UNL     1      19.979   3.397  30.192  1.00  0.00     0.214 C 
ATOM     27  O   UNL     1      18.985   1.370  31.233  1.00  0.00    -0.332 OA
ATOM     28  C   UNL     1      19.916   2.707  28.831  1.00  0.00     0.180 C 
ATOM     29  C   UNL     1      18.663   0.850  29.958  1.00  0.00     0.179 C 
ATOM     30  C   UNL     1      18.614   1.898  28.791  1.00  0.00     0.177 C 
BRANCH  26  31
ATOM     31  O   UNL     1      21.145   4.181  30.276  1.00  0.00    -0.384 OA
ATOM     32  H   UNL     1      21.923   3.574  30.091  1.00  0.00     0.211 HD
ENDBRANCH  26  31
BRANCH  28  33
ATOM     33  O   UNL     1      19.938   3.665  27.798  1.00  0.00    -0.387 OA
ATOM     34  H   UNL     1      20.734   3.464  27.233  1.00  0.00     0.211 HD
ENDBRANCH  28  33
BRANCH  29  35
ATOM     35  C   UNL     1      17.341   0.052  30.123  1.00  0.00     0.191 C 
BRANCH  35  36
ATOM     36  O   UNL     1      17.064  -0.775  29.020  1.00  0.00    -0.394 OA
ATOM     37  H   UNL     1      17.819  -1.421  28.945  1.00  0.00     0.210 HD
ENDBRANCH  35  36
ENDBRANCH  29  35
BRANCH  30  38
ATOM     38  O   UNL     1      18.466   1.283  27.528  1.00  0.00    -0.387 OA
ATOM     39  H   UNL     1      18.851   0.377  27.567  1.00  0.00     0.211 HD
ENDBRANCH  30  38
ENDBRANCH   1  25
TORSDOF 11
ENDMDL
