MODEL 1
REMARK VINA RESULT:    -4.013      0.000      0.000
REMARK INTER + INTRA:         -16.431
REMARK INTER:                 -10.582
REMARK INTRA:                  -5.849
REMARK UNBOUND:                -5.849
REMARK SMILES CCCCCCCCCCCCCCCCCCCCCCCCCCCCCC(=O)[O-]
REMARK SMILES IDX 16 1 17 2 18 3 19 4 20 5 21 6 22 7 23 8 24 9 25 10 26 11
REMARK SMILES IDX 27 12 28 13 29 14 30 15 31 16 32 17 15 18 14 19 13 20 12 21
REMARK SMILES IDX 11 22 10 23 9 24 8 25 7 26 6 27 5 28 4 29 3 30 2 31 1 32
REMARK H PARENT
REMARK Flexibility Score: inf
ROOT
ATOM      1  C   UNL     1       9.124  -8.016  33.581  1.00  0.00     0.000 C 
ENDROOT
BRANCH   1   2
ATOM      2  C   UNL     1      10.468  -7.910  34.322  1.00  0.00     0.000 C 
BRANCH   2   3
ATOM      3  C   UNL     1      10.491  -8.518  35.739  1.00  0.00     0.000 C 
BRANCH   3   4
ATOM      4  C   UNL     1       9.453  -9.638  35.959  1.00  0.00     0.000 C 
BRANCH   4   5
ATOM      5  C   UNL     1       9.836 -10.591  37.101  1.00  0.00     0.000 C 
BRANCH   5   6
ATOM      6  C   UNL     1      11.071 -11.422  36.728  1.00  0.00     0.000 C 
BRANCH   6   7
ATOM      7  C   UNL     1      12.190 -11.248  37.763  1.00  0.00     0.000 C 
BRANCH   7   8
ATOM      8  C   UNL     1      11.842 -10.212  38.847  1.00  0.00     0.000 C 
BRANCH   8   9
ATOM      9  C   UNL     1      12.758  -8.968  38.828  1.00  0.00     0.000 C 
BRANCH   9  10
ATOM     10  C   UNL     1      11.960  -7.652  38.874  1.00  0.00     0.000 C 
BRANCH  10  11
ATOM     11  C   UNL     1      12.815  -6.425  38.518  1.00  0.00     0.000 C 
BRANCH  11  12
ATOM     12  C   UNL     1      11.966  -5.224  38.058  1.00  0.00     0.000 C 
BRANCH  12  13
ATOM     13  C   UNL     1      11.729  -5.216  36.533  1.00  0.00     0.006 C 
BRANCH  13  14
ATOM     14  C   UNL     1      11.631  -3.804  35.931  1.00  0.00     0.053 C 
BRANCH  14  15
ATOM     15  C   UNL     1      12.924  -3.053  36.014  1.00  0.00     0.041 C 
ATOM     16  O   UNL     1      14.012  -3.630  35.753  1.00  0.00    -0.550 OA
ATOM     17  O   UNL     1      12.930  -1.719  36.407  1.00  0.00    -0.550 OA
ENDBRANCH  14  15
ENDBRANCH  13  14
ENDBRANCH  12  13
ENDBRANCH  11  12
ENDBRANCH  10  11
ENDBRANCH   9  10
ENDBRANCH   8   9
ENDBRANCH   7   8
ENDBRANCH   6   7
ENDBRANCH   5   6
ENDBRANCH   4   5
ENDBRANCH   3   4
ENDBRANCH   2   3
ENDBRANCH   1   2
BRANCH   1  18
ATOM     18  C   UNL     1       8.257  -6.754  33.741  1.00  0.00     0.000 C 
BRANCH  18  19
ATOM     19  C   UNL     1       8.982  -5.475  33.293  1.00  0.00     0.000 C 
BRANCH  19  20
ATOM     20  C   UNL     1       8.387  -4.207  33.926  1.00  0.00     0.000 C 
BRANCH  20  21
ATOM     21  C   UNL     1       7.598  -4.492  35.218  1.00  0.00     0.000 C 
BRANCH  21  22
ATOM     22  C   UNL     1       7.964  -3.605  36.422  1.00  0.00     0.000 C 
BRANCH  22  23
ATOM     23  C   UNL     1       8.278  -4.413  37.689  1.00  0.00     0.000 C 
BRANCH  23  24
ATOM     24  C   UNL     1       8.339  -5.919  37.386  1.00  0.00    -0.000 C 
BRANCH  24  25
ATOM     25  C   UNL     1       8.527  -6.769  38.654  1.00  0.00    -0.000 C 
BRANCH  25  26
ATOM     26  C   UNL     1       7.598  -7.996  38.680  1.00  0.00    -0.000 C 
BRANCH  26  27
ATOM     27  C   UNL     1       6.109  -7.614  38.640  1.00  0.00    -0.000 C 
BRANCH  27  28
ATOM     28  C   UNL     1       5.353  -8.107  37.393  1.00  0.00    -0.000 C 
BRANCH  28  29
ATOM     29  C   UNL     1       5.174  -7.020  36.309  1.00  0.00    -0.000 C 
BRANCH  29  30
ATOM     30  C   UNL     1       4.423  -7.552  35.078  1.00  0.00    -0.000 C 
BRANCH  30  31
ATOM     31  C   UNL     1       4.941  -8.936  34.670  1.00  0.00    -0.003 C 
ATOM     32  C   UNL     1       5.223  -8.997  33.171  1.00  0.00     0.004 C 
ENDBRANCH  30  31
ENDBRANCH  29  30
ENDBRANCH  28  29
ENDBRANCH  27  28
ENDBRANCH  26  27
ENDBRANCH  25  26
ENDBRANCH  24  25
ENDBRANCH  23  24
ENDBRANCH  22  23
ENDBRANCH  21  22
ENDBRANCH  20  21
ENDBRANCH  19  20
ENDBRANCH  18  19
ENDBRANCH   1  18
TORSDOF 28
ENDMDL
MODEL 2
REMARK VINA RESULT:    -3.931      3.524      7.363
REMARK INTER + INTRA:         -16.215
REMARK INTER:                 -10.034
REMARK INTRA:                  -6.182
REMARK UNBOUND:                -5.849
REMARK SMILES CCCCCCCCCCCCCCCCCCCCCCCCCCCCCC(=O)[O-]
REMARK SMILES IDX 16 1 17 2 18 3 19 4 20 5 21 6 22 7 23 8 24 9 25 10 26 11
REMARK SMILES IDX 27 12 28 13 29 14 30 15 31 16 32 17 15 18 14 19 13 20 12 21
REMARK SMILES IDX 11 22 10 23 9 24 8 25 7 26 6 27 5 28 4 29 3 30 2 31 1 32
REMARK H PARENT
REMARK Flexibility Score: inf
ROOT
ATOM      1  C   UNL     1       8.267  -4.801  34.142  1.00  0.00     0.000 C 
ENDROOT
BRANCH   1   2
ATOM      2  C   UNL     1       7.482  -5.417  35.314  1.00  0.00     0.000 C 
BRANCH   2   3
ATOM      3  C   UNL     1       7.810  -4.838  36.704  1.00  0.00     0.000 C 
BRANCH   3   4
ATOM      4  C   UNL     1       7.998  -5.906  37.801  1.00  0.00     0.000 C 
BRANCH   4   5
ATOM      5  C   UNL     1       7.821  -7.339  37.277  1.00  0.00     0.000 C 
BRANCH   5   6
ATOM      6  C   UNL     1       7.342  -8.274  38.395  1.00  0.00     0.000 C 
BRANCH   6   7
ATOM      7  C   UNL     1       5.910  -8.760  38.136  1.00  0.00     0.000 C 
BRANCH   7   8
ATOM      8  C   UNL     1       4.844  -7.795  38.688  1.00  0.00     0.000 C 
BRANCH   8   9
ATOM      9  C   UNL     1       3.721  -7.474  37.678  1.00  0.00     0.000 C 
BRANCH   9  10
ATOM     10  C   UNL     1       4.227  -6.641  36.485  1.00  0.00     0.000 C 
BRANCH  10  11
ATOM     11  C   UNL     1       3.984  -7.330  35.133  1.00  0.00     0.000 C 
BRANCH  11  12
ATOM     12  C   UNL     1       5.194  -8.164  34.667  1.00  0.00     0.000 C 
BRANCH  12  13
ATOM     13  C   UNL     1       4.782  -9.532  34.084  1.00  0.00     0.006 C 
BRANCH  13  14
ATOM     14  C   UNL     1       4.817 -10.677  35.110  1.00  0.00     0.053 C 
BRANCH  14  15
ATOM     15  C   UNL     1       3.471 -10.957  35.705  1.00  0.00     0.041 C 
ATOM     16  O   UNL     1       2.492 -11.231  34.963  1.00  0.00    -0.550 OA
ATOM     17  O   UNL     1       3.292 -10.888  37.083  1.00  0.00    -0.550 OA
ENDBRANCH  14  15
ENDBRANCH  13  14
ENDBRANCH  12  13
ENDBRANCH  11  12
ENDBRANCH  10  11
ENDBRANCH   9  10
ENDBRANCH   8   9
ENDBRANCH   7   8
ENDBRANCH   6   7
ENDBRANCH   5   6
ENDBRANCH   4   5
ENDBRANCH   3   4
ENDBRANCH   2   3
ENDBRANCH   1   2
BRANCH   1  18
ATOM     18  C   UNL     1       8.675  -5.846  33.087  1.00  0.00     0.000 C 
BRANCH  18  19
ATOM     19  C   UNL     1       8.531  -7.289  33.594  1.00  0.00     0.000 C 
BRANCH  19  20
ATOM     20  C   UNL     1       9.636  -8.215  33.063  1.00  0.00     0.000 C 
BRANCH  20  21
ATOM     21  C   UNL     1      10.566  -8.741  34.173  1.00  0.00     0.000 C 
BRANCH  21  22
ATOM     22  C   UNL     1       9.875  -9.565  35.275  1.00  0.00     0.000 C 
BRANCH  22  23
ATOM     23  C   UNL     1      10.673 -10.812  35.682  1.00  0.00     0.000 C 
BRANCH  23  24
ATOM     24  C   UNL     1      10.390 -11.199  37.143  1.00  0.00    -0.000 C 
BRANCH  24  25
ATOM     25  C   UNL     1      10.561 -10.016  38.111  1.00  0.00    -0.000 C 
BRANCH  25  26
ATOM     26  C   UNL     1      12.012  -9.863  38.599  1.00  0.00    -0.000 C 
BRANCH  26  27
ATOM     27  C   UNL     1      12.577  -8.455  38.348  1.00  0.00    -0.000 C 
BRANCH  27  28
ATOM     28  C   UNL     1      11.513  -7.363  38.137  1.00  0.00    -0.000 C 
BRANCH  28  29
ATOM     29  C   UNL     1      12.027  -5.934  38.423  1.00  0.00    -0.000 C 
BRANCH  29  30
ATOM     30  C   UNL     1      11.533  -4.924  37.376  1.00  0.00    -0.000 C 
BRANCH  30  31
ATOM     31  C   UNL     1      11.340  -5.593  36.010  1.00  0.00    -0.003 C 
ATOM     32  C   UNL     1      11.808  -4.681  34.880  1.00  0.00     0.004 C 
ENDBRANCH  30  31
ENDBRANCH  29  30
ENDBRANCH  28  29
ENDBRANCH  27  28
ENDBRANCH  26  27
ENDBRANCH  25  26
ENDBRANCH  24  25
ENDBRANCH  23  24
ENDBRANCH  22  23
ENDBRANCH  21  22
ENDBRANCH  20  21
ENDBRANCH  19  20
ENDBRANCH  18  19
ENDBRANCH   1  18
TORSDOF 28
ENDMDL
MODEL 3
REMARK VINA RESULT:    -3.914      1.137      1.921
REMARK INTER + INTRA:         -16.169
REMARK INTER:                 -10.335
REMARK INTRA:                  -5.834
REMARK UNBOUND:                -5.849
REMARK SMILES CCCCCCCCCCCCCCCCCCCCCCCCCCCCCC(=O)[O-]
REMARK SMILES IDX 16 1 17 2 18 3 19 4 20 5 21 6 22 7 23 8 24 9 25 10 26 11
REMARK SMILES IDX 27 12 28 13 29 14 30 15 31 16 32 17 15 18 14 19 13 20 12 21
REMARK SMILES IDX 11 22 10 23 9 24 8 25 7 26 6 27 5 28 4 29 3 30 2 31 1 32
REMARK H PARENT
REMARK Flexibility Score: inf
ROOT
ATOM      1  C   UNL     1       9.430  -8.318  33.184  1.00  0.00     0.000 C 
ENDROOT
BRANCH   1   2
ATOM      2  C   UNL     1      10.571  -8.041  34.177  1.00  0.00     0.000 C 
BRANCH   2   3
ATOM      3  C   UNL     1      10.462  -8.772  35.530  1.00  0.00     0.000 C 
BRANCH   3   4
ATOM      4  C   UNL     1       9.672 -10.096  35.466  1.00  0.00     0.000 C 
BRANCH   4   5
ATOM      5  C   UNL     1      10.051 -11.072  36.591  1.00  0.00     0.000 C 
BRANCH   5   6
ATOM      6  C   UNL     1      11.358 -11.804  36.261  1.00  0.00     0.000 C 
BRANCH   6   7
ATOM      7  C   UNL     1      12.354 -11.713  37.424  1.00  0.00     0.000 C 
BRANCH   7   8
ATOM      8  C   UNL     1      11.906 -10.723  38.515  1.00  0.00     0.000 C 
BRANCH   8   9
ATOM      9  C   UNL     1      12.931  -9.600  38.786  1.00  0.00     0.000 C 
BRANCH   9  10
ATOM     10  C   UNL     1      12.281  -8.204  38.806  1.00  0.00     0.000 C 
BRANCH  10  11
ATOM     11  C   UNL     1      13.302  -7.069  38.632  1.00  0.00     0.000 C 
BRANCH  11  12
ATOM     12  C   UNL     1      12.680  -5.674  38.839  1.00  0.00     0.000 C 
BRANCH  12  13
ATOM     13  C   UNL     1      11.312  -5.527  38.140  1.00  0.00     0.006 C 
BRANCH  13  14
ATOM     14  C   UNL     1      11.403  -5.492  36.606  1.00  0.00     0.053 C 
BRANCH  14  15
ATOM     15  C   UNL     1      11.591  -4.105  36.072  1.00  0.00     0.041 C 
ATOM     16  O   UNL     1      11.944  -3.925  34.878  1.00  0.00    -0.550 OA
ATOM     17  O   UNL     1      11.402  -3.007  36.907  1.00  0.00    -0.550 OA
ENDBRANCH  14  15
ENDBRANCH  13  14
ENDBRANCH  12  13
ENDBRANCH  11  12
ENDBRANCH  10  11
ENDBRANCH   9  10
ENDBRANCH   8   9
ENDBRANCH   7   8
ENDBRANCH   6   7
ENDBRANCH   5   6
ENDBRANCH   4   5
ENDBRANCH   3   4
ENDBRANCH   2   3
ENDBRANCH   1   2
BRANCH   1  18
ATOM     18  C   UNL     1       8.402  -7.173  33.125  1.00  0.00     0.000 C 
BRANCH  18  19
ATOM     19  C   UNL     1       9.029  -5.799  33.407  1.00  0.00     0.000 C 
BRANCH  19  20
ATOM     20  C   UNL     1       8.288  -5.027  34.511  1.00  0.00     0.000 C 
BRANCH  20  21
ATOM     21  C   UNL     1       7.607  -5.952  35.538  1.00  0.00     0.000 C 
BRANCH  21  22
ATOM     22  C   UNL     1       7.743  -5.516  37.008  1.00  0.00     0.000 C 
BRANCH  22  23
ATOM     23  C   UNL     1       7.614  -6.684  37.995  1.00  0.00     0.000 C 
BRANCH  23  24
ATOM     24  C   UNL     1       7.276  -7.994  37.264  1.00  0.00    -0.000 C 
BRANCH  24  25
ATOM     25  C   UNL     1       6.895  -9.128  38.230  1.00  0.00    -0.000 C 
BRANCH  25  26
ATOM     26  C   UNL     1       5.892 -10.116  37.607  1.00  0.00    -0.000 C 
BRANCH  26  27
ATOM     27  C   UNL     1       6.085 -10.281  36.091  1.00  0.00    -0.000 C 
BRANCH  27  28
ATOM     28  C   UNL     1       4.799 -10.129  35.259  1.00  0.00    -0.000 C 
BRANCH  28  29
ATOM     29  C   UNL     1       4.876  -9.006  34.199  1.00  0.00    -0.000 C 
BRANCH  29  30
ATOM     30  C   UNL     1       4.508  -7.634  34.785  1.00  0.00    -0.000 C 
BRANCH  30  31
ATOM     31  C   UNL     1       3.354  -7.753  35.788  1.00  0.00    -0.003 C 
ATOM     32  C   UNL     1       3.678  -7.023  37.088  1.00  0.00     0.004 C 
ENDBRANCH  30  31
ENDBRANCH  29  30
ENDBRANCH  28  29
ENDBRANCH  27  28
ENDBRANCH  26  27
ENDBRANCH  25  26
ENDBRANCH  24  25
ENDBRANCH  23  24
ENDBRANCH  22  23
ENDBRANCH  21  22
ENDBRANCH  20  21
ENDBRANCH  19  20
ENDBRANCH  18  19
ENDBRANCH   1  18
TORSDOF 28
ENDMDL
MODEL 4
REMARK VINA RESULT:    -3.760      2.131      5.249
REMARK INTER + INTRA:         -15.763
REMARK INTER:                  -9.603
REMARK INTRA:                  -6.159
REMARK UNBOUND:                -5.849
REMARK SMILES CCCCCCCCCCCCCCCCCCCCCCCCCCCCCC(=O)[O-]
REMARK SMILES IDX 16 1 17 2 18 3 19 4 20 5 21 6 22 7 23 8 24 9 25 10 26 11
REMARK SMILES IDX 27 12 28 13 29 14 30 15 31 16 32 17 15 18 14 19 13 20 12 21
REMARK SMILES IDX 11 22 10 23 9 24 8 25 7 26 6 27 5 28 4 29 3 30 2 31 1 32
REMARK H PARENT
REMARK Flexibility Score: inf
ROOT
ATOM      1  C   UNL     1      10.114  -9.461  35.321  1.00  0.00     0.000 C 
ENDROOT
BRANCH   1   2
ATOM      2  C   UNL     1      10.760  -8.913  34.037  1.00  0.00     0.000 C 
BRANCH   2   3
ATOM      3  C   UNL     1       9.802  -8.180  33.077  1.00  0.00     0.000 C 
BRANCH   3   4
ATOM      4  C   UNL     1       8.353  -8.072  33.596  1.00  0.00     0.000 C 
BRANCH   4   5
ATOM      5  C   UNL     1       7.969  -6.641  34.001  1.00  0.00     0.000 C 
BRANCH   5   6
ATOM      6  C   UNL     1       9.013  -5.633  33.502  1.00  0.00     0.000 C 
BRANCH   6   7
ATOM      7  C   UNL     1       9.230  -4.507  34.521  1.00  0.00     0.000 C 
BRANCH   7   8
ATOM      8  C   UNL     1       8.049  -4.354  35.498  1.00  0.00     0.000 C 
BRANCH   8   9
ATOM      9  C   UNL     1       8.456  -4.484  36.982  1.00  0.00     0.000 C 
BRANCH   9  10
ATOM     10  C   UNL     1       7.932  -5.784  37.622  1.00  0.00     0.000 C 
BRANCH  10  11
ATOM     11  C   UNL     1       8.957  -6.928  37.568  1.00  0.00     0.000 C 
BRANCH  11  12
ATOM     12  C   UNL     1      10.413  -6.421  37.596  1.00  0.00     0.000 C 
BRANCH  12  13
ATOM     13  C   UNL     1      11.282  -7.173  38.626  1.00  0.00     0.006 C 
BRANCH  13  14
ATOM     14  C   UNL     1      12.741  -6.691  38.672  1.00  0.00     0.053 C 
BRANCH  14  15
ATOM     15  C   UNL     1      13.713  -7.819  38.837  1.00  0.00     0.041 C 
ATOM     16  O   UNL     1      14.952  -7.595  38.842  1.00  0.00    -0.550 OA
ATOM     17  O   UNL     1      13.250  -9.125  38.959  1.00  0.00    -0.550 OA
ENDBRANCH  14  15
ENDBRANCH  13  14
ENDBRANCH  12  13
ENDBRANCH  11  12
ENDBRANCH  10  11
ENDBRANCH   9  10
ENDBRANCH   8   9
ENDBRANCH   7   8
ENDBRANCH   6   7
ENDBRANCH   5   6
ENDBRANCH   4   5
ENDBRANCH   3   4
ENDBRANCH   2   3
ENDBRANCH   1   2
BRANCH   1  18
ATOM     18  C   UNL     1      10.148 -10.999  35.393  1.00  0.00     0.000 C 
BRANCH  18  19
ATOM     19  C   UNL     1       9.634 -11.542  36.736  1.00  0.00     0.000 C 
BRANCH  19  20
ATOM     20  C   UNL     1       9.890 -10.572  37.901  1.00  0.00     0.000 C 
BRANCH  20  21
ATOM     21  C   UNL     1       8.710 -10.494  38.888  1.00  0.00     0.000 C 
BRANCH  21  22
ATOM     22  C   UNL     1       7.329 -10.825  38.292  1.00  0.00     0.000 C 
BRANCH  22  23
ATOM     23  C   UNL     1       6.584  -9.586  37.778  1.00  0.00     0.000 C 
BRANCH  23  24
ATOM     24  C   UNL     1       6.438  -9.622  36.247  1.00  0.00    -0.000 C 
BRANCH  24  25
ATOM     25  C   UNL     1       5.394 -10.649  35.778  1.00  0.00    -0.000 C 
BRANCH  25  26
ATOM     26  C   UNL     1       4.428 -10.067  34.730  1.00  0.00    -0.000 C 
BRANCH  26  27
ATOM     27  C   UNL     1       4.867  -8.683  34.224  1.00  0.00    -0.000 C 
BRANCH  27  28
ATOM     28  C   UNL     1       3.988  -7.514  34.705  1.00  0.00    -0.000 C 
BRANCH  28  29
ATOM     29  C   UNL     1       4.659  -6.642  35.790  1.00  0.00    -0.000 C 
BRANCH  29  30
ATOM     30  C   UNL     1       3.918  -6.720  37.134  1.00  0.00    -0.000 C 
BRANCH  30  31
ATOM     31  C   UNL     1       2.702  -7.650  37.040  1.00  0.00    -0.003 C 
ATOM     32  C   UNL     1       2.864  -8.860  37.955  1.00  0.00     0.004 C 
ENDBRANCH  30  31
ENDBRANCH  29  30
ENDBRANCH  28  29
ENDBRANCH  27  28
ENDBRANCH  26  27
ENDBRANCH  25  26
ENDBRANCH  24  25
ENDBRANCH  23  24
ENDBRANCH  22  23
ENDBRANCH  21  22
ENDBRANCH  20  21
ENDBRANCH  19  20
ENDBRANCH  18  19
ENDBRANCH   1  18
TORSDOF 28
ENDMDL
MODEL 5
REMARK VINA RESULT:    -3.747      1.522      4.252
REMARK INTER + INTRA:         -15.729
REMARK INTER:                  -9.901
REMARK INTRA:                  -5.828
REMARK UNBOUND:                -5.849
REMARK SMILES CCCCCCCCCCCCCCCCCCCCCCCCCCCCCC(=O)[O-]
REMARK SMILES IDX 16 1 17 2 18 3 19 4 20 5 21 6 22 7 23 8 24 9 25 10 26 11
REMARK SMILES IDX 27 12 28 13 29 14 30 15 31 16 32 17 15 18 14 19 13 20 12 21
REMARK SMILES IDX 11 22 10 23 9 24 8 25 7 26 6 27 5 28 4 29 3 30 2 31 1 32
REMARK H PARENT
REMARK Flexibility Score: inf
ROOT
ATOM      1  C   UNL     1      10.658  -8.988  33.892  1.00  0.00     0.000 C 
ENDROOT
BRANCH   1   2
ATOM      2  C   UNL     1       9.643  -8.213  33.035  1.00  0.00     0.000 C 
BRANCH   2   3
ATOM      3  C   UNL     1       9.199  -6.851  33.606  1.00  0.00     0.000 C 
BRANCH   3   4
ATOM      4  C   UNL     1       7.849  -6.892  34.352  1.00  0.00     0.000 C 
BRANCH   4   5
ATOM      5  C   UNL     1       7.505  -5.562  35.038  1.00  0.00     0.000 C 
BRANCH   5   6
ATOM      6  C   UNL     1       7.097  -5.791  36.499  1.00  0.00     0.000 C 
BRANCH   6   7
ATOM      7  C   UNL     1       7.511  -7.189  36.978  1.00  0.00     0.000 C 
BRANCH   7   8
ATOM      8  C   UNL     1       8.428  -7.148  38.214  1.00  0.00     0.000 C 
BRANCH   8   9
ATOM      9  C   UNL     1       9.534  -8.226  38.197  1.00  0.00     0.000 C 
BRANCH   9  10
ATOM     10  C   UNL     1      10.934  -7.627  37.971  1.00  0.00     0.000 C 
BRANCH  10  11
ATOM     11  C   UNL     1      10.995  -6.702  36.744  1.00  0.00     0.000 C 
BRANCH  11  12
ATOM     12  C   UNL     1      10.929  -5.210  37.123  1.00  0.00     0.000 C 
BRANCH  12  13
ATOM     13  C   UNL     1      10.851  -4.287  35.889  1.00  0.00     0.006 C 
BRANCH  13  14
ATOM     14  C   UNL     1      12.186  -4.145  35.139  1.00  0.00     0.053 C 
BRANCH  14  15
ATOM     15  C   UNL     1      13.178  -3.308  35.886  1.00  0.00     0.041 C 
ATOM     16  O   UNL     1      14.296  -3.786  36.210  1.00  0.00    -0.550 OA
ATOM     17  O   UNL     1      12.855  -2.005  36.250  1.00  0.00    -0.550 OA
ENDBRANCH  14  15
ENDBRANCH  13  14
ENDBRANCH  12  13
ENDBRANCH  11  12
ENDBRANCH  10  11
ENDBRANCH   9  10
ENDBRANCH   8   9
ENDBRANCH   7   8
ENDBRANCH   6   7
ENDBRANCH   5   6
ENDBRANCH   4   5
ENDBRANCH   3   4
ENDBRANCH   2   3
ENDBRANCH   1   2
BRANCH   1  18
ATOM     18  C   UNL     1       9.991  -9.785  35.028  1.00  0.00     0.000 C 
BRANCH  18  19
ATOM     19  C   UNL     1      10.873 -10.932  35.546  1.00  0.00     0.000 C 
BRANCH  19  20
ATOM     20  C   UNL     1      10.056 -12.171  35.945  1.00  0.00     0.000 C 
BRANCH  20  21
ATOM     21  C   UNL     1       9.254 -11.970  37.246  1.00  0.00     0.000 C 
BRANCH  21  22
ATOM     22  C   UNL     1       7.727 -12.108  37.105  1.00  0.00     0.000 C 
BRANCH  22  23
ATOM     23  C   UNL     1       6.995 -10.759  37.156  1.00  0.00     0.000 C 
BRANCH  23  24
ATOM     24  C   UNL     1       5.542 -10.934  37.625  1.00  0.00    -0.000 C 
BRANCH  24  25
ATOM     25  C   UNL     1       5.145  -9.915  38.707  1.00  0.00    -0.000 C 
BRANCH  25  26
ATOM     26  C   UNL     1       3.913  -9.084  38.306  1.00  0.00    -0.000 C 
BRANCH  26  27
ATOM     27  C   UNL     1       4.132  -7.573  38.488  1.00  0.00    -0.000 C 
BRANCH  27  28
ATOM     28  C   UNL     1       3.743  -6.716  37.270  1.00  0.00    -0.000 C 
BRANCH  28  29
ATOM     29  C   UNL     1       3.165  -7.537  36.095  1.00  0.00    -0.000 C 
BRANCH  29  30
ATOM     30  C   UNL     1       4.111  -7.554  34.883  1.00  0.00    -0.000 C 
BRANCH  30  31
ATOM     31  C   UNL     1       4.643  -8.968  34.618  1.00  0.00    -0.003 C 
ATOM     32  C   UNL     1       5.240  -9.076  33.218  1.00  0.00     0.004 C 
ENDBRANCH  30  31
ENDBRANCH  29  30
ENDBRANCH  28  29
ENDBRANCH  27  28
ENDBRANCH  26  27
ENDBRANCH  25  26
ENDBRANCH  24  25
ENDBRANCH  23  24
ENDBRANCH  22  23
ENDBRANCH  21  22
ENDBRANCH  20  21
ENDBRANCH  19  20
ENDBRANCH  18  19
ENDBRANCH   1  18
TORSDOF 28
ENDMDL
MODEL 6
REMARK VINA RESULT:    -3.718      3.368      7.345
REMARK INTER + INTRA:         -15.654
REMARK INTER:                 -10.451
REMARK INTRA:                  -5.202
REMARK UNBOUND:                -5.849
REMARK SMILES CCCCCCCCCCCCCCCCCCCCCCCCCCCCCC(=O)[O-]
REMARK SMILES IDX 16 1 17 2 18 3 19 4 20 5 21 6 22 7 23 8 24 9 25 10 26 11
REMARK SMILES IDX 27 12 28 13 29 14 30 15 31 16 32 17 15 18 14 19 13 20 12 21
REMARK SMILES IDX 11 22 10 23 9 24 8 25 7 26 6 27 5 28 4 29 3 30 2 31 1 32
REMARK H PARENT
REMARK Flexibility Score: inf
ROOT
ATOM      1  C   UNL     1       7.473  -3.540  35.374  1.00  0.00     0.000 C 
ENDROOT
BRANCH   1   2
ATOM      2  C   UNL     1       7.815  -4.064  36.780  1.00  0.00     0.000 C 
BRANCH   2   3
ATOM      3  C   UNL     1       8.661  -3.113  37.650  1.00  0.00     0.000 C 
BRANCH   3   4
ATOM      4  C   UNL     1      10.132  -2.992  37.202  1.00  0.00     0.000 C 
BRANCH   4   5
ATOM      5  C   UNL     1      11.016  -4.127  37.738  1.00  0.00     0.000 C 
BRANCH   5   6
ATOM      6  C   UNL     1      11.350  -5.130  36.626  1.00  0.00     0.000 C 
BRANCH   6   7
ATOM      7  C   UNL     1      11.196  -6.576  37.117  1.00  0.00     0.000 C 
BRANCH   7   8
ATOM      8  C   UNL     1      10.592  -6.662  38.531  1.00  0.00     0.000 C 
BRANCH   8   9
ATOM      9  C   UNL     1       9.509  -7.755  38.673  1.00  0.00     0.000 C 
BRANCH   9  10
ATOM     10  C   UNL     1       8.339  -7.550  37.693  1.00  0.00     0.000 C 
BRANCH  10  11
ATOM     11  C   UNL     1       7.427  -8.784  37.590  1.00  0.00     0.000 C 
BRANCH  11  12
ATOM     12  C   UNL     1       6.666  -8.847  36.251  1.00  0.00     0.000 C 
BRANCH  12  13
ATOM     13  C   UNL     1       5.697  -7.661  36.064  1.00  0.00     0.006 C 
BRANCH  13  14
ATOM     14  C   UNL     1       4.628  -7.901  34.986  1.00  0.00     0.053 C 
BRANCH  14  15
ATOM     15  C   UNL     1       4.088  -9.298  35.013  1.00  0.00     0.041 C 
ATOM     16  O   UNL     1       3.221  -9.629  35.862  1.00  0.00    -0.550 OA
ATOM     17  O   UNL     1       4.567 -10.246  34.113  1.00  0.00    -0.550 OA
ENDBRANCH  14  15
ENDBRANCH  13  14
ENDBRANCH  12  13
ENDBRANCH  11  12
ENDBRANCH  10  11
ENDBRANCH   9  10
ENDBRANCH   8   9
ENDBRANCH   7   8
ENDBRANCH   6   7
ENDBRANCH   5   6
ENDBRANCH   4   5
ENDBRANCH   3   4
ENDBRANCH   2   3
ENDBRANCH   1   2
BRANCH   1  18
ATOM     18  C   UNL     1       8.284  -4.238  34.267  1.00  0.00     0.000 C 
BRANCH  18  19
ATOM     19  C   UNL     1       8.104  -5.764  34.272  1.00  0.00     0.000 C 
BRANCH  19  20
ATOM     20  C   UNL     1       9.403  -6.513  33.934  1.00  0.00     0.000 C 
BRANCH  20  21
ATOM     21  C   UNL     1       9.216  -8.040  33.863  1.00  0.00     0.000 C 
BRANCH  21  22
ATOM     22  C   UNL     1      10.433  -8.874  34.306  1.00  0.00     0.000 C 
BRANCH  22  23
ATOM     23  C   UNL     1      10.043 -10.158  35.051  1.00  0.00     0.000 C 
BRANCH  23  24
ATOM     24  C   UNL     1      10.765 -10.255  36.405  1.00  0.00    -0.000 C 
BRANCH  24  25
ATOM     25  C   UNL     1      11.054 -11.708  36.817  1.00  0.00    -0.000 C 
BRANCH  25  26
ATOM     26  C   UNL     1      11.611 -11.812  38.248  1.00  0.00    -0.000 C 
BRANCH  26  27
ATOM     27  C   UNL     1      11.948 -10.440  38.854  1.00  0.00    -0.000 C 
BRANCH  27  28
ATOM     28  C   UNL     1      13.450 -10.107  38.895  1.00  0.00    -0.000 C 
BRANCH  28  29
ATOM     29  C   UNL     1      13.769  -8.637  38.538  1.00  0.00    -0.000 C 
BRANCH  29  30
ATOM     30  C   UNL     1      15.255  -8.303  38.741  1.00  0.00    -0.000 C 
BRANCH  30  31
ATOM     31  C   UNL     1      16.147  -9.211  37.886  1.00  0.00    -0.003 C 
ATOM     32  C   UNL     1      16.880 -10.233  38.751  1.00  0.00     0.004 C 
ENDBRANCH  30  31
ENDBRANCH  29  30
ENDBRANCH  28  29
ENDBRANCH  27  28
ENDBRANCH  26  27
ENDBRANCH  25  26
ENDBRANCH  24  25
ENDBRANCH  23  24
ENDBRANCH  22  23
ENDBRANCH  21  22
ENDBRANCH  20  21
ENDBRANCH  19  20
ENDBRANCH  18  19
ENDBRANCH   1  18
TORSDOF 28
ENDMDL
MODEL 7
REMARK VINA RESULT:    -3.680      1.726      5.222
REMARK INTER + INTRA:         -15.553
REMARK INTER:                  -9.207
REMARK INTRA:                  -6.346
REMARK UNBOUND:                -5.849
REMARK SMILES CCCCCCCCCCCCCCCCCCCCCCCCCCCCCC(=O)[O-]
REMARK SMILES IDX 16 1 17 2 18 3 19 4 20 5 21 6 22 7 23 8 24 9 25 10 26 11
REMARK SMILES IDX 27 12 28 13 29 14 30 15 31 16 32 17 15 18 14 19 13 20 12 21
REMARK SMILES IDX 11 22 10 23 9 24 8 25 7 26 6 27 5 28 4 29 3 30 2 31 1 32
REMARK H PARENT
REMARK Flexibility Score: inf
ROOT
ATOM      1  C   UNL     1       8.599  -8.896  36.771  1.00  0.00     0.000 C 
ENDROOT
BRANCH   1   2
ATOM      2  C   UNL     1      10.060  -9.235  36.427  1.00  0.00     0.000 C 
BRANCH   2   3
ATOM      3  C   UNL     1      10.310  -9.678  34.972  1.00  0.00     0.000 C 
BRANCH   3   4
ATOM      4  C   UNL     1      10.502  -8.509  33.984  1.00  0.00     0.000 C 
BRANCH   4   5
ATOM      5  C   UNL     1       9.258  -8.242  33.124  1.00  0.00     0.000 C 
BRANCH   5   6
ATOM      6  C   UNL     1       8.956  -6.740  33.051  1.00  0.00     0.000 C 
BRANCH   6   7
ATOM      7  C   UNL     1       8.705  -6.156  34.447  1.00  0.00     0.000 C 
BRANCH   7   8
ATOM      8  C   UNL     1       8.279  -4.677  34.406  1.00  0.00     0.000 C 
BRANCH   8   9
ATOM      9  C   UNL     1       7.761  -4.147  35.761  1.00  0.00     0.000 C 
BRANCH   9  10
ATOM     10  C   UNL     1       7.775  -5.228  36.858  1.00  0.00     0.000 C 
BRANCH  10  11
ATOM     11  C   UNL     1       8.779  -4.921  37.982  1.00  0.00     0.000 C 
BRANCH  11  12
ATOM     12  C   UNL     1      10.108  -5.682  37.812  1.00  0.00     0.000 C 
BRANCH  12  13
ATOM     13  C   UNL     1      11.331  -4.741  37.787  1.00  0.00     0.006 C 
BRANCH  13  14
ATOM     14  C   UNL     1      11.240  -3.639  36.718  1.00  0.00     0.053 C 
BRANCH  14  15
ATOM     15  C   UNL     1      12.283  -3.785  35.653  1.00  0.00     0.041 C 
ATOM     16  O   UNL     1      12.016  -4.381  34.578  1.00  0.00    -0.550 OA
ATOM     17  O   UNL     1      13.565  -3.285  35.862  1.00  0.00    -0.550 OA
ENDBRANCH  14  15
ENDBRANCH  13  14
ENDBRANCH  12  13
ENDBRANCH  11  12
ENDBRANCH  10  11
ENDBRANCH   9  10
ENDBRANCH   8   9
ENDBRANCH   7   8
ENDBRANCH   6   7
ENDBRANCH   5   6
ENDBRANCH   4   5
ENDBRANCH   3   4
ENDBRANCH   2   3
ENDBRANCH   1   2
BRANCH   1  18
ATOM     18  C   UNL     1       8.314  -8.963  38.283  1.00  0.00     0.000 C 
BRANCH  18  19
ATOM     19  C   UNL     1       7.416 -10.149  38.665  1.00  0.00     0.000 C 
BRANCH  19  20
ATOM     20  C   UNL     1       6.744 -10.798  37.445  1.00  0.00     0.000 C 
BRANCH  20  21
ATOM     21  C   UNL     1       5.409 -11.487  37.788  1.00  0.00     0.000 C 
BRANCH  21  22
ATOM     22  C   UNL     1       4.567 -11.931  36.577  1.00  0.00     0.000 C 
BRANCH  22  23
ATOM     23  C   UNL     1       3.251 -11.154  36.443  1.00  0.00     0.000 C 
BRANCH  23  24
ATOM     24  C   UNL     1       3.331 -10.117  35.310  1.00  0.00    -0.000 C 
BRANCH  24  25
ATOM     25  C   UNL     1       4.543 -10.343  34.390  1.00  0.00    -0.000 C 
BRANCH  25  26
ATOM     26  C   UNL     1       5.144  -9.021  33.879  1.00  0.00    -0.000 C 
BRANCH  26  27
ATOM     27  C   UNL     1       5.596  -8.094  35.020  1.00  0.00    -0.000 C 
BRANCH  27  28
ATOM     28  C   UNL     1       4.777  -6.799  35.158  1.00  0.00    -0.000 C 
BRANCH  28  29
ATOM     29  C   UNL     1       4.250  -6.550  36.589  1.00  0.00    -0.000 C 
BRANCH  29  30
ATOM     30  C   UNL     1       4.922  -7.471  37.620  1.00  0.00    -0.000 C 
BRANCH  30  31
ATOM     31  C   UNL     1       3.880  -8.156  38.511  1.00  0.00    -0.003 C 
ATOM     32  C   UNL     1       2.462  -7.802  38.071  1.00  0.00     0.004 C 
ENDBRANCH  30  31
ENDBRANCH  29  30
ENDBRANCH  28  29
ENDBRANCH  27  28
ENDBRANCH  26  27
ENDBRANCH  25  26
ENDBRANCH  24  25
ENDBRANCH  23  24
ENDBRANCH  22  23
ENDBRANCH  21  22
ENDBRANCH  20  21
ENDBRANCH  19  20
ENDBRANCH  18  19
ENDBRANCH   1  18
TORSDOF 28
ENDMDL
MODEL 8
REMARK VINA RESULT:    -3.647      1.460      4.643
REMARK INTER + INTRA:         -15.467
REMARK INTER:                  -9.057
REMARK INTRA:                  -6.410
REMARK UNBOUND:                -5.849
REMARK SMILES CCCCCCCCCCCCCCCCCCCCCCCCCCCCCC(=O)[O-]
REMARK SMILES IDX 16 1 17 2 18 3 19 4 20 5 21 6 22 7 23 8 24 9 25 10 26 11
REMARK SMILES IDX 27 12 28 13 29 14 30 15 31 16 32 17 15 18 14 19 13 20 12 21
REMARK SMILES IDX 11 22 10 23 9 24 8 25 7 26 6 27 5 28 4 29 3 30 2 31 1 32
REMARK H PARENT
REMARK Flexibility Score: inf
ROOT
ATOM      1  C   UNL     1       9.859  -7.604  35.242  1.00  0.00     0.000 C 
ENDROOT
BRANCH   1   2
ATOM      2  C   UNL     1       9.595  -7.550  33.727  1.00  0.00     0.000 C 
BRANCH   2   3
ATOM      3  C   UNL     1       8.607  -6.460  33.268  1.00  0.00     0.000 C 
BRANCH   3   4
ATOM      4  C   UNL     1       9.111  -5.019  33.493  1.00  0.00     0.000 C 
BRANCH   4   5
ATOM      5  C   UNL     1       8.145  -4.173  34.337  1.00  0.00     0.000 C 
BRANCH   5   6
ATOM      6  C   UNL     1       7.289  -5.066  35.246  1.00  0.00     0.000 C 
BRANCH   6   7
ATOM      7  C   UNL     1       7.674  -4.888  36.720  1.00  0.00     0.000 C 
BRANCH   7   8
ATOM      8  C   UNL     1       7.477  -6.172  37.546  1.00  0.00     0.000 C 
BRANCH   8   9
ATOM      9  C   UNL     1       8.353  -6.228  38.817  1.00  0.00     0.000 C 
BRANCH   9  10
ATOM     10  C   UNL     1       9.205  -7.509  38.886  1.00  0.00     0.000 C 
BRANCH  10  11
ATOM     11  C   UNL     1      10.714  -7.217  38.935  1.00  0.00     0.000 C 
BRANCH  11  12
ATOM     12  C   UNL     1      11.038  -5.729  38.695  1.00  0.00     0.000 C 
BRANCH  12  13
ATOM     13  C   UNL     1      11.826  -5.497  37.389  1.00  0.00     0.006 C 
BRANCH  13  14
ATOM     14  C   UNL     1      11.226  -4.401  36.493  1.00  0.00     0.053 C 
BRANCH  14  15
ATOM     15  C   UNL     1      12.238  -3.801  35.565  1.00  0.00     0.041 C 
ATOM     16  O   UNL     1      12.458  -4.322  34.441  1.00  0.00    -0.550 OA
ATOM     17  O   UNL     1      12.960  -2.678  35.955  1.00  0.00    -0.550 OA
ENDBRANCH  14  15
ENDBRANCH  13  14
ENDBRANCH  12  13
ENDBRANCH  11  12
ENDBRANCH  10  11
ENDBRANCH   9  10
ENDBRANCH   8   9
ENDBRANCH   7   8
ENDBRANCH   6   7
ENDBRANCH   5   6
ENDBRANCH   4   5
ENDBRANCH   3   4
ENDBRANCH   2   3
ENDBRANCH   1   2
BRANCH   1  18
ATOM     18  C   UNL     1      10.664  -8.848  35.660  1.00  0.00     0.000 C 
BRANCH  18  19
ATOM     19  C   UNL     1      10.100 -10.148  35.066  1.00  0.00     0.000 C 
BRANCH  19  20
ATOM     20  C   UNL     1      10.316 -11.360  35.987  1.00  0.00     0.000 C 
BRANCH  20  21
ATOM     21  C   UNL     1      10.893 -10.976  37.362  1.00  0.00     0.000 C 
BRANCH  21  22
ATOM     22  C   UNL     1       9.910 -11.084  38.542  1.00  0.00     0.000 C 
BRANCH  22  23
ATOM     23  C   UNL     1       8.550 -11.671  38.139  1.00  0.00     0.000 C 
BRANCH  23  24
ATOM     24  C   UNL     1       7.396 -10.764  38.599  1.00  0.00    -0.000 C 
BRANCH  24  25
ATOM     25  C   UNL     1       6.149 -10.900  37.708  1.00  0.00    -0.000 C 
BRANCH  25  26
ATOM     26  C   UNL     1       6.448 -10.593  36.230  1.00  0.00    -0.000 C 
BRANCH  26  27
ATOM     27  C   UNL     1       6.668  -9.095  35.967  1.00  0.00    -0.000 C 
BRANCH  27  28
ATOM     28  C   UNL     1       6.147  -8.598  34.606  1.00  0.00    -0.000 C 
BRANCH  28  29
ATOM     29  C   UNL     1       4.618  -8.378  34.571  1.00  0.00    -0.000 C 
BRANCH  29  30
ATOM     30  C   UNL     1       4.190  -7.167  35.415  1.00  0.00    -0.000 C 
BRANCH  30  31
ATOM     31  C   UNL     1       3.027  -7.527  36.347  1.00  0.00    -0.003 C 
ATOM     32  C   UNL     1       2.902  -9.039  36.511  1.00  0.00     0.004 C 
ENDBRANCH  30  31
ENDBRANCH  29  30
ENDBRANCH  28  29
ENDBRANCH  27  28
ENDBRANCH  26  27
ENDBRANCH  25  26
ENDBRANCH  24  25
ENDBRANCH  23  24
ENDBRANCH  22  23
ENDBRANCH  21  22
ENDBRANCH  20  21
ENDBRANCH  19  20
ENDBRANCH  18  19
ENDBRANCH   1  18
TORSDOF 28
ENDMDL
MODEL 9
REMARK VINA RESULT:    -3.637      1.323      2.579
REMARK INTER + INTRA:         -15.438
REMARK INTER:                  -9.632
REMARK INTRA:                  -5.807
REMARK UNBOUND:                -5.849
REMARK SMILES CCCCCCCCCCCCCCCCCCCCCCCCCCCCCC(=O)[O-]
REMARK SMILES IDX 16 1 17 2 18 3 19 4 20 5 21 6 22 7 23 8 24 9 25 10 26 11
REMARK SMILES IDX 27 12 28 13 29 14 30 15 31 16 32 17 15 18 14 19 13 20 12 21
REMARK SMILES IDX 11 22 10 23 9 24 8 25 7 26 6 27 5 28 4 29 3 30 2 31 1 32
REMARK H PARENT
REMARK Flexibility Score: inf
ROOT
ATOM      1  C   UNL     1       8.625  -5.515  32.767  1.00  0.00     0.000 C 
ENDROOT
BRANCH   1   2
ATOM      2  C   UNL     1       8.556  -7.009  33.127  1.00  0.00     0.000 C 
BRANCH   2   3
ATOM      3  C   UNL     1       9.599  -7.489  34.156  1.00  0.00     0.000 C 
BRANCH   3   4
ATOM      4  C   UNL     1       9.203  -8.784  34.895  1.00  0.00     0.000 C 
BRANCH   4   5
ATOM      5  C   UNL     1      10.328  -9.830  34.911  1.00  0.00     0.000 C 
BRANCH   5   6
ATOM      6  C   UNL     1       9.975 -10.997  35.843  1.00  0.00     0.000 C 
BRANCH   6   7
ATOM      7  C   UNL     1      11.231 -11.585  36.498  1.00  0.00     0.000 C 
BRANCH   7   8
ATOM      8  C   UNL     1      11.165 -11.567  38.036  1.00  0.00     0.000 C 
BRANCH   8   9
ATOM      9  C   UNL     1      10.447 -10.325  38.607  1.00  0.00     0.000 C 
BRANCH   9  10
ATOM     10  C   UNL     1      11.391  -9.117  38.756  1.00  0.00     0.000 C 
BRANCH  10  11
ATOM     11  C   UNL     1      10.753  -7.801  38.284  1.00  0.00     0.000 C 
BRANCH  11  12
ATOM     12  C   UNL     1      11.617  -7.063  37.243  1.00  0.00     0.000 C 
BRANCH  12  13
ATOM     13  C   UNL     1      11.043  -5.681  36.869  1.00  0.00     0.006 C 
BRANCH  13  14
ATOM     14  C   UNL     1      11.984  -4.511  37.202  1.00  0.00     0.053 C 
BRANCH  14  15
ATOM     15  C   UNL     1      12.401  -3.745  35.984  1.00  0.00     0.041 C 
ATOM     16  O   UNL     1      12.734  -2.535  36.077  1.00  0.00    -0.550 OA
ATOM     17  O   UNL     1      12.396  -4.364  34.738  1.00  0.00    -0.550 OA
ENDBRANCH  14  15
ENDBRANCH  13  14
ENDBRANCH  12  13
ENDBRANCH  11  12
ENDBRANCH  10  11
ENDBRANCH   9  10
ENDBRANCH   8   9
ENDBRANCH   7   8
ENDBRANCH   6   7
ENDBRANCH   5   6
ENDBRANCH   4   5
ENDBRANCH   3   4
ENDBRANCH   2   3
ENDBRANCH   1   2
BRANCH   1  18
ATOM     18  C   UNL     1       9.098  -4.642  33.944  1.00  0.00     0.000 C 
BRANCH  18  19
ATOM     19  C   UNL     1       7.945  -3.883  34.619  1.00  0.00     0.000 C 
BRANCH  19  20
ATOM     20  C   UNL     1       7.769  -4.269  36.097  1.00  0.00     0.000 C 
BRANCH  20  21
ATOM     21  C   UNL     1       7.101  -5.645  36.283  1.00  0.00     0.000 C 
BRANCH  21  22
ATOM     22  C   UNL     1       7.460  -6.379  37.589  1.00  0.00     0.000 C 
BRANCH  22  23
ATOM     23  C   UNL     1       6.960  -7.830  37.618  1.00  0.00     0.000 C 
BRANCH  23  24
ATOM     24  C   UNL     1       5.729  -7.974  38.529  1.00  0.00    -0.000 C 
BRANCH  24  25
ATOM     25  C   UNL     1       4.522  -7.167  38.021  1.00  0.00    -0.000 C 
BRANCH  25  26
ATOM     26  C   UNL     1       3.341  -8.069  37.622  1.00  0.00    -0.000 C 
BRANCH  26  27
ATOM     27  C   UNL     1       2.986  -7.958  36.130  1.00  0.00    -0.000 C 
BRANCH  27  28
ATOM     28  C   UNL     1       4.059  -7.272  35.264  1.00  0.00    -0.000 C 
BRANCH  28  29
ATOM     29  C   UNL     1       4.943  -8.263  34.474  1.00  0.00    -0.000 C 
BRANCH  29  30
ATOM     30  C   UNL     1       4.546  -9.725  34.735  1.00  0.00    -0.000 C 
BRANCH  30  31
ATOM     31  C   UNL     1       5.624 -10.454  35.544  1.00  0.00    -0.003 C 
ATOM     32  C   UNL     1       5.009 -11.233  36.703  1.00  0.00     0.004 C 
ENDBRANCH  30  31
ENDBRANCH  29  30
ENDBRANCH  28  29
ENDBRANCH  27  28
ENDBRANCH  26  27
ENDBRANCH  25  26
ENDBRANCH  24  25
ENDBRANCH  23  24
ENDBRANCH  22  23
ENDBRANCH  21  22
ENDBRANCH  20  21
ENDBRANCH  19  20
ENDBRANCH  18  19
ENDBRANCH   1  18
TORSDOF 28
ENDMDL
