MODEL 1
REMARK VINA RESULT:    -6.720      0.000      0.000
REMARK INTER + INTRA:          -7.172
REMARK INTER:                  -7.309
REMARK INTRA:                   0.137
REMARK UNBOUND:                 0.137
REMARK SMILES C[C@H]1[C@H](C)CC[C@@]2(C(=O)[O-])CC[C@@]3(C)C(=CC[C@H]4[C@]5(C)CC[C@H](O)C(C)(C)[C@H]5CC[C@]43C)[C@H]12
REMARK SMILES IDX 7 1 6 2 11 3 33 4 5 5 12 6 15 7 2 8 3 9 13 10 16 11 1 12
REMARK SMILES IDX 4 13 14 14 31 15 17 16 18 17 30 18 32 19 19 20 29 21 28 22
REMARK SMILES IDX 21 23 20 24 25 25 22 26 23 27 26 28 27 29 8 30 9 31 10 32
REMARK SMILES IDX 24 33
REMARK H PARENT 24 34
REMARK Flexibility Score: inf
ROOT
ATOM      1  C   UNL     1      -7.699  25.284  33.777  1.00  0.00     0.017 C 
ATOM      2  C   UNL     1      -8.883  25.371  32.747  1.00  0.00     0.014 C 
ATOM      3  C   UNL     1      -6.935  23.973  33.502  1.00  0.00     0.014 C 
ATOM      4  C   UNL     1      -6.734  26.523  33.593  1.00  0.00     0.030 C 
ATOM      5  C   UNL     1      -9.158  26.778  32.204  1.00  0.00     0.004 C 
ATOM      6  C   UNL     1      -5.761  23.790  34.463  1.00  0.00     0.013 C 
ATOM      7  C   UNL     1      -5.365  26.313  34.315  1.00  0.00    -0.063 C 
ATOM      8  C   UNL     1      -7.549  27.851  33.941  1.00  0.00    -0.003 C 
ATOM      9  C   UNL     1      -8.967  27.884  33.251  1.00  0.00    -0.011 C 
ATOM     10  C   UNL     1      -4.692  24.923  34.352  1.00  0.00    -0.006 C 
ATOM     11  C   UNL     1      -4.475  27.318  34.351  1.00  0.00    -0.027 C 
ATOM     12  C   UNL     1      -6.828  29.177  33.621  1.00  0.00     0.008 C 
ATOM     13  C   UNL     1     -10.119  27.907  34.270  1.00  0.00     0.008 C 
ATOM     14  C   UNL     1      -3.993  24.759  32.954  1.00  0.00     0.017 C 
ATOM     15  C   UNL     1      -3.627  24.814  35.569  1.00  0.00    -0.020 C 
ATOM     16  C   UNL     1      -3.334  27.346  35.317  1.00  0.00     0.032 C 
ATOM     17  C   UNL     1      -2.566  26.001  35.510  1.00  0.00     0.006 C 
ATOM     18  C   UNL     1      -4.373  24.928  36.960  1.00  0.00     0.008 C 
ATOM     19  C   UNL     1      -2.910  23.412  35.475  1.00  0.00     0.012 C 
ATOM     20  C   UNL     1      -1.503  26.052  36.744  1.00  0.00    -0.025 C 
ATOM     21  C   UNL     1      -3.524  25.393  38.172  1.00  0.00     0.005 C 
ATOM     22  C   UNL     1      -2.019  25.170  37.942  1.00  0.00     0.003 C 
ATOM     23  C   UNL     1      -0.092  25.509  36.301  1.00  0.00     0.010 C 
ATOM     24  C   UNL     1      -1.261  27.533  37.203  1.00  0.00     0.012 C 
ATOM     25  C   UNL     1      -1.099  25.104  39.231  1.00  0.00    -0.006 C 
ATOM     26  C   UNL     1       0.665  24.693  37.379  1.00  0.00     0.033 C 
ATOM     27  C   UNL     1       0.423  25.198  38.819  1.00  0.00     0.120 C 
ATOM     28  C   UNL     1      -1.436  26.215  40.258  1.00  0.00     0.014 C 
ATOM     29  C   UNL     1      -1.351  23.745  39.956  1.00  0.00     0.014 C 
ENDROOT
BRANCH   1  30
ATOM     30  C   UNL     1      -8.267  25.186  35.199  1.00  0.00     0.048 C 
ATOM     31  O   UNL     1      -9.251  24.435  35.440  1.00  0.00    -0.550 OA
ATOM     32  O   UNL     1      -7.644  25.812  36.271  1.00  0.00    -0.550 OA
ENDBRANCH   1  30
BRANCH  27  33
ATOM     33  O   UNL     1       1.233  24.466  39.709  1.00  0.00    -0.393 OA
ATOM     34  H   UNL     1       1.031  24.787  40.627  1.00  0.00     0.210 HD
ENDBRANCH  27  33
TORSDOF 2
ENDMDL
MODEL 2
REMARK VINA RESULT:    -6.672      4.421      7.563
REMARK INTER + INTRA:          -7.120
REMARK INTER:                  -7.245
REMARK INTRA:                   0.126
REMARK UNBOUND:                 0.137
REMARK SMILES C[C@H]1[C@H](C)CC[C@@]2(C(=O)[O-])CC[C@@]3(C)C(=CC[C@H]4[C@]5(C)CC[C@H](O)C(C)(C)[C@H]5CC[C@]43C)[C@H]12
REMARK SMILES IDX 7 1 6 2 11 3 33 4 5 5 12 6 15 7 2 8 3 9 13 10 16 11 1 12
REMARK SMILES IDX 4 13 14 14 31 15 17 16 18 17 30 18 32 19 19 20 29 21 28 22
REMARK SMILES IDX 21 23 20 24 25 25 22 26 23 27 26 28 27 29 8 30 9 31 10 32
REMARK SMILES IDX 24 33
REMARK H PARENT 24 34
REMARK Flexibility Score: inf
ROOT
ATOM      1  C   UNL     1      -1.808  24.542  37.194  1.00  0.00     0.017 C 
ATOM      2  C   UNL     1      -2.831  24.399  38.379  1.00  0.00     0.014 C 
ATOM      3  C   UNL     1      -2.301  23.645  36.040  1.00  0.00     0.014 C 
ATOM      4  C   UNL     1      -1.742  26.048  36.719  1.00  0.00     0.030 C 
ATOM      5  C   UNL     1      -3.113  25.699  39.141  1.00  0.00     0.004 C 
ATOM      6  C   UNL     1      -1.364  23.708  34.834  1.00  0.00     0.013 C 
ATOM      7  C   UNL     1      -1.040  26.197  35.332  1.00  0.00    -0.063 C 
ATOM      8  C   UNL     1      -1.175  26.930  37.923  1.00  0.00    -0.003 C 
ATOM      9  C   UNL     1      -1.877  26.597  39.295  1.00  0.00    -0.011 C 
ATOM     10  C   UNL     1      -1.243  25.139  34.223  1.00  0.00    -0.006 C 
ATOM     11  C   UNL     1      -0.802  27.422  34.838  1.00  0.00    -0.027 C 
ATOM     12  C   UNL     1      -1.231  28.458  37.714  1.00  0.00     0.008 C 
ATOM     13  C   UNL     1      -0.896  26.039  40.341  1.00  0.00     0.008 C 
ATOM     14  C   UNL     1      -2.632  25.479  33.570  1.00  0.00     0.017 C 
ATOM     15  C   UNL     1      -0.044  25.188  33.134  1.00  0.00    -0.020 C 
ATOM     16  C   UNL     1       0.178  27.667  33.735  1.00  0.00     0.032 C 
ATOM     17  C   UNL     1       0.138  26.657  32.546  1.00  0.00     0.006 C 
ATOM     18  C   UNL     1       1.328  24.787  33.814  1.00  0.00     0.008 C 
ATOM     19  C   UNL     1      -0.377  24.159  31.985  1.00  0.00     0.012 C 
ATOM     20  C   UNL     1       1.384  26.849  31.513  1.00  0.00    -0.025 C 
ATOM     21  C   UNL     1       2.623  25.291  33.123  1.00  0.00     0.005 C 
ATOM     22  C   UNL     1       2.389  25.644  31.644  1.00  0.00     0.003 C 
ATOM     23  C   UNL     1       0.879  26.912  30.022  1.00  0.00     0.010 C 
ATOM     24  C   UNL     1       2.111  28.215  31.772  1.00  0.00     0.012 C 
ATOM     25  C   UNL     1       3.664  25.669  30.703  1.00  0.00    -0.006 C 
ATOM     26  C   UNL     1       1.806  26.228  28.986  1.00  0.00     0.033 C 
ATOM     27  C   UNL     1       3.309  26.352  29.324  1.00  0.00     0.120 C 
ATOM     28  C   UNL     1       4.869  26.393  31.355  1.00  0.00     0.014 C 
ATOM     29  C   UNL     1       4.122  24.200  30.444  1.00  0.00     0.014 C 
ENDROOT
BRANCH   1  30
ATOM     30  C   UNL     1      -0.440  24.001  37.633  1.00  0.00     0.048 C 
ATOM     31  O   UNL     1      -0.357  22.895  38.233  1.00  0.00    -0.550 OA
ATOM     32  O   UNL     1       0.739  24.641  37.274  1.00  0.00    -0.550 OA
ENDBRANCH   1  30
BRANCH  27  33
ATOM     33  O   UNL     1       4.068  25.797  28.275  1.00  0.00    -0.393 OA
ATOM     34  H   UNL     1       3.820  24.837  28.205  1.00  0.00     0.210 HD
ENDBRANCH  27  33
TORSDOF 2
ENDMDL
MODEL 3
REMARK VINA RESULT:    -5.889      4.127      6.543
REMARK INTER + INTRA:          -6.268
REMARK INTER:                  -6.397
REMARK INTRA:                   0.129
REMARK UNBOUND:                 0.137
REMARK SMILES C[C@H]1[C@H](C)CC[C@@]2(C(=O)[O-])CC[C@@]3(C)C(=CC[C@H]4[C@]5(C)CC[C@H](O)C(C)(C)[C@H]5CC[C@]43C)[C@H]12
REMARK SMILES IDX 7 1 6 2 11 3 33 4 5 5 12 6 15 7 2 8 3 9 13 10 16 11 1 12
REMARK SMILES IDX 4 13 14 14 31 15 17 16 18 17 30 18 32 19 19 20 29 21 28 22
REMARK SMILES IDX 21 23 20 24 25 25 22 26 23 27 26 28 27 29 8 30 9 31 10 32
REMARK SMILES IDX 24 33
REMARK H PARENT 24 34
REMARK Flexibility Score: inf
ROOT
ATOM      1  C   UNL     1       0.405  26.263  32.393  1.00  0.00     0.017 C 
ATOM      2  C   UNL     1       0.750  26.767  30.945  1.00  0.00     0.014 C 
ATOM      3  C   UNL     1       0.325  27.500  33.311  1.00  0.00     0.014 C 
ATOM      4  C   UNL     1      -0.982  25.505  32.382  1.00  0.00     0.030 C 
ATOM      5  C   UNL     1       0.032  26.017  29.817  1.00  0.00     0.004 C 
ATOM      6  C   UNL     1      -0.000  27.113  34.754  1.00  0.00     0.013 C 
ATOM      7  C   UNL     1      -1.553  25.305  33.822  1.00  0.00    -0.063 C 
ATOM      8  C   UNL     1      -0.837  24.205  31.467  1.00  0.00    -0.003 C 
ATOM      9  C   UNL     1      -0.130  24.515  30.091  1.00  0.00    -0.011 C 
ATOM     10  C   UNL     1      -1.379  26.396  34.903  1.00  0.00    -0.006 C 
ATOM     11  C   UNL     1      -2.669  24.580  33.997  1.00  0.00    -0.027 C 
ATOM     12  C   UNL     1      -2.149  23.448  31.173  1.00  0.00     0.008 C 
ATOM     13  C   UNL     1       1.200  23.760  29.927  1.00  0.00     0.008 C 
ATOM     14  C   UNL     1      -2.489  27.468  34.598  1.00  0.00     0.017 C 
ATOM     15  C   UNL     1      -1.537  25.781  36.394  1.00  0.00    -0.020 C 
ATOM     16  C   UNL     1      -3.067  24.026  35.328  1.00  0.00     0.032 C 
ATOM     17  C   UNL     1      -2.911  24.990  36.546  1.00  0.00     0.006 C 
ATOM     18  C   UNL     1      -0.373  24.749  36.685  1.00  0.00     0.008 C 
ATOM     19  C   UNL     1      -1.454  26.968  37.430  1.00  0.00     0.012 C 
ATOM     20  C   UNL     1      -3.134  24.240  37.975  1.00  0.00    -0.025 C 
ATOM     21  C   UNL     1      -0.643  23.682  37.778  1.00  0.00     0.005 C 
ATOM     22  C   UNL     1      -1.764  24.112  38.741  1.00  0.00     0.003 C 
ATOM     23  C   UNL     1      -4.136  25.045  38.887  1.00  0.00     0.010 C 
ATOM     24  C   UNL     1      -3.791  22.832  37.765  1.00  0.00     0.012 C 
ATOM     25  C   UNL     1      -1.799  23.407  40.160  1.00  0.00    -0.006 C 
ATOM     26  C   UNL     1      -3.798  25.037  40.399  1.00  0.00     0.033 C 
ATOM     27  C   UNL     1      -3.168  23.712  40.885  1.00  0.00     0.120 C 
ATOM     28  C   UNL     1      -1.582  21.875  40.067  1.00  0.00     0.014 C 
ATOM     29  C   UNL     1      -0.626  23.965  41.024  1.00  0.00     0.014 C 
ENDROOT
BRANCH   1  30
ATOM     30  C   UNL     1       1.552  25.387  32.915  1.00  0.00     0.048 C 
ATOM     31  O   UNL     1       2.747  25.779  32.814  1.00  0.00    -0.550 OA
ATOM     32  O   UNL     1       1.305  24.215  33.618  1.00  0.00    -0.550 OA
ENDBRANCH   1  30
BRANCH  27  33
ATOM     33  O   UNL     1      -2.999  23.764  42.283  1.00  0.00    -0.393 OA
ATOM     34  H   UNL     1      -3.869  23.521  42.696  1.00  0.00     0.210 HD
ENDBRANCH  27  33
TORSDOF 2
ENDMDL
MODEL 4
REMARK VINA RESULT:    -5.774      5.412      7.895
REMARK INTER + INTRA:          -6.143
REMARK INTER:                  -6.269
REMARK INTRA:                   0.126
REMARK UNBOUND:                 0.137
REMARK SMILES C[C@H]1[C@H](C)CC[C@@]2(C(=O)[O-])CC[C@@]3(C)C(=CC[C@H]4[C@]5(C)CC[C@H](O)C(C)(C)[C@H]5CC[C@]43C)[C@H]12
REMARK SMILES IDX 7 1 6 2 11 3 33 4 5 5 12 6 15 7 2 8 3 9 13 10 16 11 1 12
REMARK SMILES IDX 4 13 14 14 31 15 17 16 18 17 30 18 32 19 19 20 29 21 28 22
REMARK SMILES IDX 21 23 20 24 25 25 22 26 23 27 26 28 27 29 8 30 9 31 10 32
REMARK SMILES IDX 24 33
REMARK H PARENT 24 34
REMARK Flexibility Score: inf
ROOT
ATOM      1  C   UNL     1       2.416  24.656  29.926  1.00  0.00     0.017 C 
ATOM      2  C   UNL     1       3.451  24.616  28.743  1.00  0.00     0.014 C 
ATOM      3  C   UNL     1       2.932  23.710  31.029  1.00  0.00     0.014 C 
ATOM      4  C   UNL     1       2.296  26.129  30.486  1.00  0.00     0.030 C 
ATOM      5  C   UNL     1       3.695  25.967  28.060  1.00  0.00     0.004 C 
ATOM      6  C   UNL     1       1.985  23.671  32.229  1.00  0.00     0.013 C 
ATOM      7  C   UNL     1       1.580  26.173  31.874  1.00  0.00    -0.063 C 
ATOM      8  C   UNL     1       1.707  27.060  29.330  1.00  0.00    -0.003 C 
ATOM      9  C   UNL     1       2.430  26.830  27.947  1.00  0.00    -0.011 C 
ATOM     10  C   UNL     1       1.812  25.060  32.921  1.00  0.00    -0.006 C 
ATOM     11  C   UNL     1       1.298  27.359  32.436  1.00  0.00    -0.027 C 
ATOM     12  C   UNL     1       1.711  28.574  29.628  1.00  0.00     0.008 C 
ATOM     13  C   UNL     1       1.475  26.302  26.863  1.00  0.00     0.008 C 
ATOM     14  C   UNL     1       3.185  25.407  33.604  1.00  0.00     0.017 C 
ATOM     15  C   UNL     1       0.605  25.005  34.001  1.00  0.00    -0.020 C 
ATOM     16  C   UNL     1       0.303  27.506  33.543  1.00  0.00     0.032 C 
ATOM     17  C   UNL     1       0.369  26.431  34.672  1.00  0.00     0.006 C 
ATOM     18  C   UNL     1      -0.749  24.599  33.287  1.00  0.00     0.008 C 
ATOM     19  C   UNL     1       0.965  23.923  35.091  1.00  0.00     0.012 C 
ATOM     20  C   UNL     1      -0.889  26.521  35.703  1.00  0.00    -0.025 C 
ATOM     21  C   UNL     1      -2.064  25.019  33.994  1.00  0.00     0.005 C 
ATOM     22  C   UNL     1      -1.852  25.292  35.493  1.00  0.00     0.003 C 
ATOM     23  C   UNL     1      -0.397  26.514  37.200  1.00  0.00     0.010 C 
ATOM     24  C   UNL     1      -1.660  27.874  35.517  1.00  0.00     0.012 C 
ATOM     25  C   UNL     1      -3.133  25.220  36.424  1.00  0.00    -0.006 C 
ATOM     26  C   UNL     1      -1.307  25.740  38.186  1.00  0.00     0.033 C 
ATOM     27  C   UNL     1      -2.811  25.833  37.843  1.00  0.00     0.120 C 
ATOM     28  C   UNL     1      -4.358  25.940  35.804  1.00  0.00     0.014 C 
ATOM     29  C   UNL     1      -3.543  23.724  36.593  1.00  0.00     0.014 C 
ENDROOT
BRANCH   1  30
ATOM     30  C   UNL     1       1.071  24.096  29.444  1.00  0.00     0.048 C 
ATOM     31  O   UNL     1       1.028  23.021  28.787  1.00  0.00    -0.550 OA
ATOM     32  O   UNL     1      -0.132  24.680  29.823  1.00  0.00    -0.550 OA
ENDBRANCH   1  30
BRANCH  27  33
ATOM     33  O   UNL     1      -3.557  25.193  38.851  1.00  0.00    -0.393 OA
ATOM     34  H   UNL     1      -3.113  25.386  39.718  1.00  0.00     0.210 HD
ENDBRANCH  27  33
TORSDOF 2
ENDMDL
MODEL 5
REMARK VINA RESULT:    -5.680      3.422      5.325
REMARK INTER + INTRA:          -6.041
REMARK INTER:                  -6.166
REMARK INTRA:                   0.125
REMARK UNBOUND:                 0.137
REMARK SMILES C[C@H]1[C@H](C)CC[C@@]2(C(=O)[O-])CC[C@@]3(C)C(=CC[C@H]4[C@]5(C)CC[C@H](O)C(C)(C)[C@H]5CC[C@]43C)[C@H]12
REMARK SMILES IDX 7 1 6 2 11 3 33 4 5 5 12 6 15 7 2 8 3 9 13 10 16 11 1 12
REMARK SMILES IDX 4 13 14 14 31 15 17 16 18 17 30 18 32 19 19 20 29 21 28 22
REMARK SMILES IDX 21 23 20 24 25 25 22 26 23 27 26 28 27 29 8 30 9 31 10 32
REMARK SMILES IDX 24 33
REMARK H PARENT 24 34
REMARK Flexibility Score: inf
ROOT
ATOM      1  C   UNL     1      -1.069  24.826  31.118  1.00  0.00     0.017 C 
ATOM      2  C   UNL     1      -1.124  25.176  29.587  1.00  0.00     0.014 C 
ATOM      3  C   UNL     1       0.207  25.467  31.699  1.00  0.00     0.014 C 
ATOM      4  C   UNL     1      -2.347  25.402  31.849  1.00  0.00     0.030 C 
ATOM      5  C   UNL     1      -2.527  25.483  29.050  1.00  0.00     0.004 C 
ATOM      6  C   UNL     1       0.358  25.176  33.192  1.00  0.00     0.013 C 
ATOM      7  C   UNL     1      -2.181  25.413  33.401  1.00  0.00    -0.063 C 
ATOM      8  C   UNL     1      -3.637  24.671  31.256  1.00  0.00    -0.003 C 
ATOM      9  C   UNL     1      -3.625  24.614  29.680  1.00  0.00    -0.011 C 
ATOM     10  C   UNL     1      -0.817  25.739  34.051  1.00  0.00    -0.006 C 
ATOM     11  C   UNL     1      -3.219  25.768  34.176  1.00  0.00    -0.027 C 
ATOM     12  C   UNL     1      -4.995  25.250  31.705  1.00  0.00     0.008 C 
ATOM     13  C   UNL     1      -3.588  23.173  29.143  1.00  0.00     0.008 C 
ATOM     14  C   UNL     1      -0.701  27.307  34.015  1.00  0.00     0.017 C 
ATOM     15  C   UNL     1      -0.733  25.169  35.566  1.00  0.00    -0.020 C 
ATOM     16  C   UNL     1      -3.277  25.450  35.636  1.00  0.00     0.032 C 
ATOM     17  C   UNL     1      -1.961  25.682  36.442  1.00  0.00     0.006 C 
ATOM     18  C   UNL     1      -0.798  23.587  35.558  1.00  0.00     0.008 C 
ATOM     19  C   UNL     1       0.638  25.632  36.193  1.00  0.00     0.012 C 
ATOM     20  C   UNL     1      -2.036  25.090  37.957  1.00  0.00    -0.025 C 
ATOM     21  C   UNL     1      -1.278  22.902  36.865  1.00  0.00     0.005 C 
ATOM     22  C   UNL     1      -1.117  23.818  38.090  1.00  0.00     0.003 C 
ATOM     23  C   UNL     1      -1.555  26.160  39.009  1.00  0.00     0.010 C 
ATOM     24  C   UNL     1      -3.518  24.752  38.346  1.00  0.00     0.012 C 
ATOM     25  C   UNL     1      -1.069  23.114  39.510  1.00  0.00    -0.006 C 
ATOM     26  C   UNL     1      -0.754  25.589  40.206  1.00  0.00     0.033 C 
ATOM     27  C   UNL     1      -1.228  24.189  40.655  1.00  0.00     0.120 C 
ATOM     28  C   UNL     1      -2.150  22.015  39.664  1.00  0.00     0.014 C 
ATOM     29  C   UNL     1       0.310  22.399  39.665  1.00  0.00     0.014 C 
ENDROOT
BRANCH   1  30
ATOM     30  C   UNL     1      -0.928  23.307  31.288  1.00  0.00     0.048 C 
ATOM     31  O   UNL     1      -0.083  22.667  30.605  1.00  0.00    -0.550 OA
ATOM     32  O   UNL     1      -1.626  22.622  32.275  1.00  0.00    -0.550 OA
ENDBRANCH   1  30
BRANCH  27  33
ATOM     33  O   UNL     1      -0.515  23.806  41.809  1.00  0.00    -0.393 OA
ATOM     34  H   UNL     1       0.345  23.411  41.509  1.00  0.00     0.210 HD
ENDBRANCH  27  33
TORSDOF 2
ENDMDL
MODEL 6
REMARK VINA RESULT:    -5.606      3.951      7.877
REMARK INTER + INTRA:          -5.961
REMARK INTER:                  -6.094
REMARK INTRA:                   0.133
REMARK UNBOUND:                 0.137
REMARK SMILES C[C@H]1[C@H](C)CC[C@@]2(C(=O)[O-])CC[C@@]3(C)C(=CC[C@H]4[C@]5(C)CC[C@H](O)C(C)(C)[C@H]5CC[C@]43C)[C@H]12
REMARK SMILES IDX 7 1 6 2 11 3 33 4 5 5 12 6 15 7 2 8 3 9 13 10 16 11 1 12
REMARK SMILES IDX 4 13 14 14 31 15 17 16 18 17 30 18 32 19 19 20 29 21 28 22
REMARK SMILES IDX 21 23 20 24 25 25 22 26 23 27 26 28 27 29 8 30 9 31 10 32
REMARK SMILES IDX 24 33
REMARK H PARENT 24 34
REMARK Flexibility Score: inf
ROOT
ATOM      1  C   UNL     1       1.631  25.731  32.239  1.00  0.00     0.017 C 
ATOM      2  C   UNL     1       3.158  26.031  32.017  1.00  0.00     0.014 C 
ATOM      3  C   UNL     1       1.524  24.402  33.013  1.00  0.00     0.014 C 
ATOM      4  C   UNL     1       0.970  26.900  33.072  1.00  0.00     0.030 C 
ATOM      5  C   UNL     1       3.547  27.508  32.145  1.00  0.00     0.004 C 
ATOM      6  C   UNL     1       0.068  24.016  33.275  1.00  0.00     0.013 C 
ATOM      7  C   UNL     1      -0.430  26.499  33.636  1.00  0.00    -0.063 C 
ATOM      8  C   UNL     1       1.054  28.242  32.210  1.00  0.00    -0.003 C 
ATOM      9  C   UNL     1       2.486  28.468  31.589  1.00  0.00    -0.011 C 
ATOM     10  C   UNL     1      -0.701  25.063  34.140  1.00  0.00    -0.006 C 
ATOM     11  C   UNL     1      -1.175  27.417  34.273  1.00  0.00    -0.027 C 
ATOM     12  C   UNL     1       0.640  29.533  32.947  1.00  0.00     0.008 C 
ATOM     13  C   UNL     1       2.469  28.468  30.051  1.00  0.00     0.008 C 
ATOM     14  C   UNL     1      -0.087  25.004  35.586  1.00  0.00     0.017 C 
ATOM     15  C   UNL     1      -2.287  24.730  34.150  1.00  0.00    -0.020 C 
ATOM     16  C   UNL     1      -2.643  27.242  34.502  1.00  0.00     0.032 C 
ATOM     17  C   UNL     1      -3.098  25.826  34.976  1.00  0.00     0.006 C 
ATOM     18  C   UNL     1      -2.858  24.745  32.674  1.00  0.00     0.008 C 
ATOM     19  C   UNL     1      -2.487  23.295  34.773  1.00  0.00     0.012 C 
ATOM     20  C   UNL     1      -4.718  25.650  34.970  1.00  0.00    -0.025 C 
ATOM     21  C   UNL     1      -4.381  24.998  32.517  1.00  0.00     0.005 C 
ATOM     22  C   UNL     1      -5.155  24.681  33.808  1.00  0.00     0.003 C 
ATOM     23  C   UNL     1      -5.227  25.048  36.334  1.00  0.00     0.010 C 
ATOM     24  C   UNL     1      -5.425  27.044  34.833  1.00  0.00     0.012 C 
ATOM     25  C   UNL     1      -6.707  24.394  33.661  1.00  0.00    -0.006 C 
ATOM     26  C   UNL     1      -6.411  24.056  36.212  1.00  0.00     0.033 C 
ATOM     27  C   UNL     1      -7.400  24.410  35.080  1.00  0.00     0.120 C 
ATOM     28  C   UNL     1      -7.411  25.404  32.719  1.00  0.00     0.014 C 
ATOM     29  C   UNL     1      -6.895  22.986  33.015  1.00  0.00     0.014 C 
ENDROOT
BRANCH   1  30
ATOM     30  C   UNL     1       0.951  25.518  30.879  1.00  0.00     0.048 C 
ATOM     31  O   UNL     1       1.503  24.805  29.998  1.00  0.00    -0.550 OA
ATOM     32  O   UNL     1      -0.331  25.989  30.631  1.00  0.00    -0.550 OA
ENDBRANCH   1  30
BRANCH  27  33
ATOM     33  O   UNL     1      -8.490  23.518  35.120  1.00  0.00    -0.393 OA
ATOM     34  H   UNL     1      -9.267  23.980  34.708  1.00  0.00     0.210 HD
ENDBRANCH  27  33
TORSDOF 2
ENDMDL
MODEL 7
REMARK VINA RESULT:    -5.605      6.770      9.655
REMARK INTER + INTRA:          -5.959
REMARK INTER:                  -6.085
REMARK INTRA:                   0.126
REMARK UNBOUND:                 0.137
REMARK SMILES C[C@H]1[C@H](C)CC[C@@]2(C(=O)[O-])CC[C@@]3(C)C(=CC[C@H]4[C@]5(C)CC[C@H](O)C(C)(C)[C@H]5CC[C@]43C)[C@H]12
REMARK SMILES IDX 7 1 6 2 11 3 33 4 5 5 12 6 15 7 2 8 3 9 13 10 16 11 1 12
REMARK SMILES IDX 4 13 14 14 31 15 17 16 18 17 30 18 32 19 19 20 29 21 28 22
REMARK SMILES IDX 21 23 20 24 25 25 22 26 23 27 26 28 27 29 8 30 9 31 10 32
REMARK SMILES IDX 24 33
REMARK H PARENT 24 34
REMARK Flexibility Score: inf
ROOT
ATOM      1  C   UNL     1       3.966  24.451  28.159  1.00  0.00     0.017 C 
ATOM      2  C   UNL     1       4.724  24.431  26.782  1.00  0.00     0.014 C 
ATOM      3  C   UNL     1       4.674  25.477  29.067  1.00  0.00     0.014 C 
ATOM      4  C   UNL     1       2.459  24.871  27.936  1.00  0.00     0.030 C 
ATOM      5  C   UNL     1       3.818  24.285  25.553  1.00  0.00     0.004 C 
ATOM      6  C   UNL     1       4.012  25.566  30.442  1.00  0.00     0.013 C 
ATOM      7  C   UNL     1       1.756  25.264  29.274  1.00  0.00    -0.063 C 
ATOM      8  C   UNL     1       1.752  23.755  27.039  1.00  0.00    -0.003 C 
ATOM      9  C   UNL     1       2.621  23.353  25.786  1.00  0.00    -0.011 C 
ATOM     10  C   UNL     1       2.522  26.026  30.379  1.00  0.00    -0.006 C 
ATOM     11  C   UNL     1       0.441  25.539  29.275  1.00  0.00    -0.027 C 
ATOM     12  C   UNL     1       0.330  24.097  26.548  1.00  0.00     0.008 C 
ATOM     13  C   UNL     1       3.048  21.875  25.813  1.00  0.00     0.008 C 
ATOM     14  C   UNL     1       2.525  27.532  29.924  1.00  0.00     0.017 C 
ATOM     15  C   UNL     1       1.813  25.841  31.825  1.00  0.00    -0.020 C 
ATOM     16  C   UNL     1      -0.376  25.548  30.528  1.00  0.00     0.032 C 
ATOM     17  C   UNL     1       0.273  26.245  31.765  1.00  0.00     0.006 C 
ATOM     18  C   UNL     1       1.877  24.325  32.274  1.00  0.00     0.008 C 
ATOM     19  C   UNL     1       2.587  26.730  32.873  1.00  0.00     0.012 C 
ATOM     20  C   UNL     1      -0.569  26.003  33.139  1.00  0.00    -0.025 C 
ATOM     21  C   UNL     1       0.817  23.857  33.305  1.00  0.00     0.005 C 
ATOM     22  C   UNL     1       0.221  25.034  34.096  1.00  0.00     0.003 C 
ATOM     23  C   UNL     1      -0.813  27.361  33.900  1.00  0.00     0.010 C 
ATOM     24  C   UNL     1      -1.996  25.435  32.820  1.00  0.00     0.012 C 
ATOM     25  C   UNL     1      -0.457  24.693  35.488  1.00  0.00    -0.006 C 
ATOM     26  C   UNL     1      -0.750  27.267  35.446  1.00  0.00     0.033 C 
ATOM     27  C   UNL     1      -1.289  25.931  36.006  1.00  0.00     0.120 C 
ATOM     28  C   UNL     1      -1.367  23.441  35.414  1.00  0.00     0.014 C 
ATOM     29  C   UNL     1       0.665  24.361  36.521  1.00  0.00     0.014 C 
ENDROOT
BRANCH   1  30
ATOM     30  C   UNL     1       4.102  23.080  28.835  1.00  0.00     0.048 C 
ATOM     31  O   UNL     1       5.229  22.517  28.910  1.00  0.00    -0.550 OA
ATOM     32  O   UNL     1       3.030  22.486  29.488  1.00  0.00    -0.550 OA
ENDBRANCH   1  30
BRANCH  27  33
ATOM     33  O   UNL     1      -1.290  25.986  37.414  1.00  0.00    -0.393 OA
ATOM     34  H   UNL     1      -0.785  25.196  37.742  1.00  0.00     0.210 HD
ENDBRANCH  27  33
TORSDOF 2
ENDMDL
MODEL 8
REMARK VINA RESULT:    -5.599      4.891      7.831
REMARK INTER + INTRA:          -5.953
REMARK INTER:                  -6.083
REMARK INTRA:                   0.130
REMARK UNBOUND:                 0.137
REMARK SMILES C[C@H]1[C@H](C)CC[C@@]2(C(=O)[O-])CC[C@@]3(C)C(=CC[C@H]4[C@]5(C)CC[C@H](O)C(C)(C)[C@H]5CC[C@]43C)[C@H]12
REMARK SMILES IDX 7 1 6 2 11 3 33 4 5 5 12 6 15 7 2 8 3 9 13 10 16 11 1 12
REMARK SMILES IDX 4 13 14 14 31 15 17 16 18 17 30 18 32 19 19 20 29 21 28 22
REMARK SMILES IDX 21 23 20 24 25 25 22 26 23 27 26 28 27 29 8 30 9 31 10 32
REMARK SMILES IDX 24 33
REMARK H PARENT 24 34
REMARK Flexibility Score: inf
ROOT
ATOM      1  C   UNL     1       1.216  24.506  29.961  1.00  0.00     0.017 C 
ATOM      2  C   UNL     1       2.554  24.361  29.148  1.00  0.00     0.014 C 
ATOM      3  C   UNL     1       0.974  23.176  30.702  1.00  0.00     0.014 C 
ATOM      4  C   UNL     1       1.344  25.691  30.999  1.00  0.00     0.030 C 
ATOM      5  C   UNL     1       3.428  25.621  29.123  1.00  0.00     0.004 C 
ATOM      6  C   UNL     1      -0.316  23.212  31.522  1.00  0.00     0.013 C 
ATOM      7  C   UNL     1       0.211  25.654  32.074  1.00  0.00    -0.063 C 
ATOM      8  C   UNL     1       1.537  27.053  30.187  1.00  0.00    -0.003 C 
ATOM      9  C   UNL     1       2.619  26.923  29.046  1.00  0.00    -0.011 C 
ATOM     10  C   UNL     1      -0.310  24.310  32.631  1.00  0.00    -0.006 C 
ATOM     11  C   UNL     1       0.109  26.655  32.963  1.00  0.00    -0.027 C 
ATOM     12  C   UNL     1       1.883  28.292  31.039  1.00  0.00     0.008 C 
ATOM     13  C   UNL     1       2.026  27.144  27.644  1.00  0.00     0.008 C 
ATOM     14  C   UNL     1       0.745  23.868  33.710  1.00  0.00     0.017 C 
ATOM     15  C   UNL     1      -1.789  24.471  33.274  1.00  0.00    -0.020 C 
ATOM     16  C   UNL     1      -1.133  26.898  33.760  1.00  0.00     0.032 C 
ATOM     17  C   UNL     1      -1.818  25.633  34.364  1.00  0.00     0.006 C 
ATOM     18  C   UNL     1      -2.833  24.863  32.150  1.00  0.00     0.008 C 
ATOM     19  C   UNL     1      -2.204  23.090  33.912  1.00  0.00     0.012 C 
ATOM     20  C   UNL     1      -3.281  25.954  35.006  1.00  0.00    -0.025 C 
ATOM     21  C   UNL     1      -4.126  25.582  32.618  1.00  0.00     0.005 C 
ATOM     22  C   UNL     1      -4.417  25.334  34.109  1.00  0.00     0.003 C 
ATOM     23  C   UNL     1      -3.409  25.348  36.455  1.00  0.00     0.010 C 
ATOM     24  C   UNL     1      -3.483  27.501  35.175  1.00  0.00     0.012 C 
ATOM     25  C   UNL     1      -5.910  25.550  34.593  1.00  0.00    -0.006 C 
ATOM     26  C   UNL     1      -4.808  24.784  36.809  1.00  0.00     0.033 C 
ATOM     27  C   UNL     1      -5.972  25.575  36.171  1.00  0.00     0.120 C 
ATOM     28  C   UNL     1      -6.538  26.846  34.021  1.00  0.00     0.014 C 
ATOM     29  C   UNL     1      -6.782  24.369  34.065  1.00  0.00     0.014 C 
ENDROOT
BRANCH   1  30
ATOM     30  C   UNL     1       0.047  24.699  28.986  1.00  0.00     0.048 C 
ATOM     31  O   UNL     1      -0.070  23.952  27.977  1.00  0.00    -0.550 OA
ATOM     32  O   UNL     1      -0.973  25.604  29.251  1.00  0.00    -0.550 OA
ENDBRANCH   1  30
BRANCH  27  33
ATOM     33  O   UNL     1      -7.196  25.055  36.636  1.00  0.00    -0.393 OA
ATOM     34  H   UNL     1      -7.887  25.755  36.499  1.00  0.00     0.210 HD
ENDBRANCH  27  33
TORSDOF 2
ENDMDL
MODEL 9
REMARK VINA RESULT:    -5.584      4.251      7.506
REMARK INTER + INTRA:          -5.937
REMARK INTER:                  -6.069
REMARK INTRA:                   0.132
REMARK UNBOUND:                 0.137
REMARK SMILES C[C@H]1[C@H](C)CC[C@@]2(C(=O)[O-])CC[C@@]3(C)C(=CC[C@H]4[C@]5(C)CC[C@H](O)C(C)(C)[C@H]5CC[C@]43C)[C@H]12
REMARK SMILES IDX 7 1 6 2 11 3 33 4 5 5 12 6 15 7 2 8 3 9 13 10 16 11 1 12
REMARK SMILES IDX 4 13 14 14 31 15 17 16 18 17 30 18 32 19 19 20 29 21 28 22
REMARK SMILES IDX 21 23 20 24 25 25 22 26 23 27 26 28 27 29 8 30 9 31 10 32
REMARK SMILES IDX 24 33
REMARK H PARENT 24 34
REMARK Flexibility Score: inf
ROOT
ATOM      1  C   UNL     1       1.435  25.862  31.800  1.00  0.00     0.017 C 
ATOM      2  C   UNL     1       1.938  25.907  30.311  1.00  0.00     0.014 C 
ATOM      3  C   UNL     1       0.385  26.978  31.973  1.00  0.00     0.014 C 
ATOM      4  C   UNL     1       0.787  24.454  32.106  1.00  0.00     0.030 C 
ATOM      5  C   UNL     1       2.189  24.534  29.678  1.00  0.00     0.004 C 
ATOM      6  C   UNL     1      -0.164  27.023  33.399  1.00  0.00     0.013 C 
ATOM      7  C   UNL     1      -0.050  24.467  33.425  1.00  0.00    -0.063 C 
ATOM      8  C   UNL     1       1.920  23.337  31.970  1.00  0.00    -0.003 C 
ATOM      9  C   UNL     1       2.778  23.509  30.658  1.00  0.00    -0.011 C 
ATOM     10  C   UNL     1      -0.885  25.705  33.823  1.00  0.00    -0.006 C 
ATOM     11  C   UNL     1      -0.575  23.321  33.888  1.00  0.00    -0.027 C 
ATOM     12  C   UNL     1       1.427  21.877  32.035  1.00  0.00     0.008 C 
ATOM     13  C   UNL     1       4.261  23.793  30.955  1.00  0.00     0.008 C 
ATOM     14  C   UNL     1      -2.204  25.610  32.973  1.00  0.00     0.017 C 
ATOM     15  C   UNL     1      -1.199  25.720  35.412  1.00  0.00    -0.020 C 
ATOM     16  C   UNL     1      -1.049  23.166  35.298  1.00  0.00     0.032 C 
ATOM     17  C   UNL     1      -1.878  24.355  35.877  1.00  0.00     0.006 C 
ATOM     18  C   UNL     1       0.146  25.872  36.234  1.00  0.00     0.008 C 
ATOM     19  C   UNL     1      -2.139  26.949  35.719  1.00  0.00     0.012 C 
ATOM     20  C   UNL     1      -2.147  24.216  37.477  1.00  0.00    -0.025 C 
ATOM     21  C   UNL     1       0.129  25.365  37.700  1.00  0.00     0.005 C 
ATOM     22  C   UNL     1      -1.298  25.282  38.266  1.00  0.00     0.003 C 
ATOM     23  C   UNL     1      -3.669  24.444  37.818  1.00  0.00     0.010 C 
ATOM     24  C   UNL     1      -1.817  22.763  37.969  1.00  0.00     0.012 C 
ATOM     25  C   UNL     1      -1.445  25.289  39.845  1.00  0.00    -0.006 C 
ATOM     26  C   UNL     1      -3.938  25.196  39.146  1.00  0.00     0.033 C 
ATOM     27  C   UNL     1      -2.913  24.876  40.256  1.00  0.00     0.120 C 
ATOM     28  C   UNL     1      -0.421  24.357  40.540  1.00  0.00     0.014 C 
ATOM     29  C   UNL     1      -1.153  26.730  40.367  1.00  0.00     0.014 C 
ENDROOT
BRANCH   1  30
ATOM     30  C   UNL     1       2.602  26.191  32.741  1.00  0.00     0.048 C 
ATOM     31  O   UNL     1       3.378  27.150  32.480  1.00  0.00    -0.550 OA
ATOM     32  O   UNL     1       2.758  25.535  33.956  1.00  0.00    -0.550 OA
ENDBRANCH   1  30
BRANCH  27  33
ATOM     33  O   UNL     1      -3.303  25.520  41.447  1.00  0.00    -0.393 OA
ATOM     34  H   UNL     1      -3.173  24.874  42.190  1.00  0.00     0.210 HD
ENDBRANCH  27  33
TORSDOF 2
ENDMDL
