MODEL 1
REMARK VINA RESULT:    -6.815      0.000      0.000
REMARK INTER + INTRA:          -8.497
REMARK INTER:                  -8.209
REMARK INTRA:                  -0.288
REMARK UNBOUND:                -0.288
REMARK SMILES O=c1c(O)c(-c2ccc(O)c(O)c2)oc2cc(O)cc(O)c12
REMARK SMILES IDX 5 1 3 2 2 3 1 4 22 5 20 6 19 7 17 8 16 9 15 10 14 11 6 12
REMARK SMILES IDX 7 13 8 14 9 15 13 16 11 17 10 18 12 20 4 22 21 24 18 26
REMARK H PARENT 10 19 12 21 4 23 21 25 18 27
REMARK Flexibility Score: inf
ROOT
ATOM      1  C   UNL     1      60.363  -2.712  29.135  1.00  0.00     0.180 A 
ATOM      2  C   UNL     1      59.985  -1.369  28.964  1.00  0.00     0.208 A 
ATOM      3  C   UNL     1      58.728  -0.950  29.430  1.00  0.00     0.238 A 
ATOM      4  O   UNL     1      58.419   0.265  29.324  1.00  0.00    -0.285 OA
ATOM      5  C   UNL     1      57.860  -1.882  30.046  1.00  0.00     0.111 A 
ATOM      6  C   UNL     1      56.548  -1.577  30.520  1.00  0.00     0.134 A 
ATOM      7  C   UNL     1      55.828  -2.545  31.230  1.00  0.00     0.093 A 
ATOM      8  C   UNL     1      56.343  -3.826  31.427  1.00  0.00     0.123 A 
ATOM      9  C   UNL     1      57.600  -4.153  30.916  1.00  0.00     0.094 A 
ATOM     10  C   UNL     1      58.357  -3.198  30.236  1.00  0.00     0.146 A 
ATOM     11  O   UNL     1      59.552  -3.547  29.775  1.00  0.00    -0.452 OA
ENDROOT
BRANCH   1  12
ATOM     12  C   UNL     1      61.660  -3.234  28.648  1.00  0.00     0.025 A 
ATOM     13  C   UNL     1      62.750  -3.408  29.516  1.00  0.00     0.016 A 
ATOM     14  C   UNL     1      63.970  -3.880  29.030  1.00  0.00     0.051 A 
ATOM     15  C   UNL     1      64.134  -4.172  27.671  1.00  0.00     0.157 A 
ATOM     16  C   UNL     1      61.828  -3.506  27.281  1.00  0.00     0.062 A 
ATOM     17  C   UNL     1      63.049  -3.979  26.784  1.00  0.00     0.158 A 
BRANCH  15  18
ATOM     18  O   UNL     1      65.379  -4.644  27.251  1.00  0.00    -0.504 OA
ATOM     19  H   UNL     1      65.517  -5.223  26.435  1.00  0.00     0.293 HD
ENDBRANCH  15  18
BRANCH  17  20
ATOM     20  O   UNL     1      63.139  -4.241  25.415  1.00  0.00    -0.504 OA
ATOM     21  H   UNL     1      63.362  -5.146  25.027  1.00  0.00     0.293 HD
ENDBRANCH  17  20
ENDBRANCH   1  12
BRANCH   2  22
ATOM     22  O   UNL     1      60.868  -0.461  28.372  1.00  0.00    -0.502 OA
ATOM     23  H   UNL     1      61.400  -0.683  27.539  1.00  0.00     0.293 HD
ENDBRANCH   2  22
BRANCH   6  24
ATOM     24  O   UNL     1      55.902  -0.358  30.297  1.00  0.00    -0.507 OA
ATOM     25  H   UNL     1      56.291   0.548  30.516  1.00  0.00     0.293 HD
ENDBRANCH   6  24
BRANCH   8  26
ATOM     26  O   UNL     1      55.592  -4.769  32.125  1.00  0.00    -0.508 OA
ATOM     27  H   UNL     1      55.868  -5.090  33.045  1.00  0.00     0.293 HD
ENDBRANCH   8  26
TORSDOF 6
ENDMDL
MODEL 2
REMARK VINA RESULT:    -6.188      1.623      7.037
REMARK INTER + INTRA:          -7.741
REMARK INTER:                  -7.450
REMARK INTRA:                  -0.291
REMARK UNBOUND:                -0.288
REMARK SMILES O=c1c(O)c(-c2ccc(O)c(O)c2)oc2cc(O)cc(O)c12
REMARK SMILES IDX 5 1 3 2 2 3 1 4 22 5 20 6 19 7 17 8 16 9 15 10 14 11 6 12
REMARK SMILES IDX 7 13 8 14 9 15 13 16 11 17 10 18 12 20 4 22 21 24 18 26
REMARK H PARENT 10 19 12 21 4 23 21 25 18 27
REMARK Flexibility Score: inf
ROOT
ATOM      1  C   UNL     1      60.008  -2.191  29.807  1.00  0.00     0.180 A 
ATOM      2  C   UNL     1      60.944  -2.209  30.855  1.00  0.00     0.208 A 
ATOM      3  C   UNL     1      62.244  -2.676  30.601  1.00  0.00     0.238 A 
ATOM      4  O   UNL     1      63.092  -2.637  31.529  1.00  0.00    -0.285 OA
ATOM      5  C   UNL     1      62.587  -3.134  29.306  1.00  0.00     0.111 A 
ATOM      6  C   UNL     1      63.862  -3.666  28.946  1.00  0.00     0.134 A 
ATOM      7  C   UNL     1      64.130  -3.968  27.605  1.00  0.00     0.093 A 
ATOM      8  C   UNL     1      63.151  -3.820  26.624  1.00  0.00     0.123 A 
ATOM      9  C   UNL     1      61.882  -3.357  26.975  1.00  0.00     0.094 A 
ATOM     10  C   UNL     1      61.595  -3.013  28.297  1.00  0.00     0.146 A 
ATOM     11  O   UNL     1      60.379  -2.567  28.588  1.00  0.00    -0.452 OA
ENDROOT
BRANCH   1  12
ATOM     12  C   UNL     1      58.613  -1.737  30.003  1.00  0.00     0.025 A 
ATOM     13  C   UNL     1      57.558  -2.654  30.133  1.00  0.00     0.016 A 
ATOM     14  C   UNL     1      56.247  -2.203  30.294  1.00  0.00     0.051 A 
ATOM     15  C   UNL     1      55.960  -0.833  30.313  1.00  0.00     0.157 A 
ATOM     16  C   UNL     1      58.325  -0.363  30.001  1.00  0.00     0.062 A 
ATOM     17  C   UNL     1      57.013   0.099  30.161  1.00  0.00     0.158 A 
BRANCH  15  18
ATOM     18  O   UNL     1      54.628  -0.448  30.482  1.00  0.00    -0.504 OA
ATOM     19  H   UNL     1      54.197   0.323  29.991  1.00  0.00     0.293 HD
ENDBRANCH  15  18
BRANCH  17  20
ATOM     20  O   UNL     1      56.804   1.480  30.162  1.00  0.00    -0.504 OA
ATOM     21  H   UNL     1      57.102   2.096  29.420  1.00  0.00     0.293 HD
ENDBRANCH  17  20
ENDBRANCH   1  12
BRANCH   2  22
ATOM     22  O   UNL     1      60.591  -1.731  32.120  1.00  0.00    -0.502 OA
ATOM     23  H   UNL     1      59.935  -2.216  32.722  1.00  0.00     0.293 HD
ENDBRANCH   2  22
BRANCH   6  24
ATOM     24  O   UNL     1      64.880  -3.939  29.863  1.00  0.00    -0.507 OA
ATOM     25  H   UNL     1      65.776  -3.474  29.885  1.00  0.00     0.293 HD
ENDBRANCH   6  24
BRANCH   8  26
ATOM     26  O   UNL     1      63.449  -4.145  25.302  1.00  0.00    -0.508 OA
ATOM     27  H   UNL     1      63.386  -3.457  24.561  1.00  0.00     0.293 HD
ENDBRANCH   8  26
TORSDOF 6
ENDMDL
MODEL 3
REMARK VINA RESULT:    -5.994      1.597      6.992
REMARK INTER + INTRA:          -7.509
REMARK INTER:                  -7.233
REMARK INTRA:                  -0.275
REMARK UNBOUND:                -0.288
REMARK SMILES O=c1c(O)c(-c2ccc(O)c(O)c2)oc2cc(O)cc(O)c12
REMARK SMILES IDX 5 1 3 2 2 3 1 4 22 5 20 6 19 7 17 8 16 9 15 10 14 11 6 12
REMARK SMILES IDX 7 13 8 14 9 15 13 16 11 17 10 18 12 20 4 22 21 24 18 26
REMARK H PARENT 10 19 12 21 4 23 21 25 18 27
REMARK Flexibility Score: inf
ROOT
ATOM      1  C   UNL     1      59.992  -2.257  29.705  1.00  0.00     0.180 A 
ATOM      2  C   UNL     1      60.902  -2.258  30.776  1.00  0.00     0.208 A 
ATOM      3  C   UNL     1      62.205  -2.737  30.564  1.00  0.00     0.238 A 
ATOM      4  O   UNL     1      63.030  -2.684  31.512  1.00  0.00    -0.285 OA
ATOM      5  C   UNL     1      62.576  -3.224  29.288  1.00  0.00     0.111 A 
ATOM      6  C   UNL     1      63.857  -3.769  28.971  1.00  0.00     0.134 A 
ATOM      7  C   UNL     1      64.157  -4.100  27.643  1.00  0.00     0.093 A 
ATOM      8  C   UNL     1      63.203  -3.967  26.635  1.00  0.00     0.123 A 
ATOM      9  C   UNL     1      61.928  -3.490  26.945  1.00  0.00     0.094 A 
ATOM     10  C   UNL     1      61.611  -3.118  28.252  1.00  0.00     0.146 A 
ATOM     11  O   UNL     1      60.391  -2.660  28.504  1.00  0.00    -0.452 OA
ENDROOT
BRANCH   1  12
ATOM     12  C   UNL     1      58.595  -1.791  29.857  1.00  0.00     0.025 A 
ATOM     13  C   UNL     1      58.283  -0.424  29.916  1.00  0.00     0.016 A 
ATOM     14  C   UNL     1      56.961  -0.008  30.083  1.00  0.00     0.051 A 
ATOM     15  C   UNL     1      55.929  -0.944  30.209  1.00  0.00     0.157 A 
ATOM     16  C   UNL     1      57.564  -2.732  30.004  1.00  0.00     0.062 A 
ATOM     17  C   UNL     1      56.234  -2.324  30.173  1.00  0.00     0.158 A 
BRANCH  15  18
ATOM     18  O   UNL     1      54.628  -0.462  30.370  1.00  0.00    -0.504 OA
ATOM     19  H   UNL     1      54.390   0.519  30.407  1.00  0.00     0.293 HD
ENDBRANCH  15  18
BRANCH  17  20
ATOM     20  O   UNL     1      55.260  -3.317  30.300  1.00  0.00    -0.504 OA
ATOM     21  H   UNL     1      55.283  -4.197  29.806  1.00  0.00     0.293 HD
ENDBRANCH  17  20
ENDBRANCH   1  12
BRANCH   2  22
ATOM     22  O   UNL     1      60.520  -1.752  32.022  1.00  0.00    -0.502 OA
ATOM     23  H   UNL     1      60.781  -0.825  32.337  1.00  0.00     0.293 HD
ENDBRANCH   2  22
BRANCH   6  24
ATOM     24  O   UNL     1      64.851  -4.030  29.918  1.00  0.00    -0.507 OA
ATOM     25  H   UNL     1      65.121  -3.397  30.657  1.00  0.00     0.293 HD
ENDBRANCH   6  24
BRANCH   8  26
ATOM     26  O   UNL     1      63.531  -4.321  25.328  1.00  0.00    -0.508 OA
ATOM     27  H   UNL     1      64.380  -3.988  24.886  1.00  0.00     0.293 HD
ENDBRANCH   8  26
TORSDOF 6
ENDMDL
MODEL 4
REMARK VINA RESULT:    -5.833     13.299     15.761
REMARK INTER + INTRA:          -7.314
REMARK INTER:                  -6.981
REMARK INTRA:                  -0.333
REMARK UNBOUND:                -0.288
REMARK SMILES O=c1c(O)c(-c2ccc(O)c(O)c2)oc2cc(O)cc(O)c12
REMARK SMILES IDX 5 1 3 2 2 3 1 4 22 5 20 6 19 7 17 8 16 9 15 10 14 11 6 12
REMARK SMILES IDX 7 13 8 14 9 15 13 16 11 17 10 18 12 20 4 22 21 24 18 26
REMARK H PARENT 10 19 12 21 4 23 21 25 18 27
REMARK Flexibility Score: inf
ROOT
ATOM      1  C   UNL     1      64.251 -12.408  18.122  1.00  0.00     0.180 A 
ATOM      2  C   UNL     1      64.821 -11.402  18.921  1.00  0.00     0.208 A 
ATOM      3  C   UNL     1      64.879 -11.588  20.313  1.00  0.00     0.238 A 
ATOM      4  O   UNL     1      65.441 -10.709  21.016  1.00  0.00    -0.285 OA
ATOM      5  C   UNL     1      64.352 -12.768  20.888  1.00  0.00     0.111 A 
ATOM      6  C   UNL     1      64.321 -13.043  22.288  1.00  0.00     0.134 A 
ATOM      7  C   UNL     1      63.894 -14.300  22.736  1.00  0.00     0.093 A 
ATOM      8  C   UNL     1      63.436 -15.266  21.841  1.00  0.00     0.123 A 
ATOM      9  C   UNL     1      63.406 -14.986  20.474  1.00  0.00     0.094 A 
ATOM     10  C   UNL     1      63.859 -13.756  19.994  1.00  0.00     0.146 A 
ATOM     11  O   UNL     1      63.824 -13.532  18.686  1.00  0.00    -0.452 OA
ENDROOT
BRANCH   1  12
ATOM     12  C   UNL     1      64.131 -12.274  16.653  1.00  0.00     0.025 A 
ATOM     13  C   UNL     1      63.019 -11.652  16.064  1.00  0.00     0.016 A 
ATOM     14  C   UNL     1      62.916 -11.558  14.675  1.00  0.00     0.051 A 
ATOM     15  C   UNL     1      63.910 -12.093  13.847  1.00  0.00     0.157 A 
ATOM     16  C   UNL     1      65.118 -12.830  15.824  1.00  0.00     0.062 A 
ATOM     17  C   UNL     1      65.024 -12.742  14.429  1.00  0.00     0.158 A 
BRANCH  15  18
ATOM     18  O   UNL     1      63.748 -11.962  12.467  1.00  0.00    -0.504 OA
ATOM     19  H   UNL     1      63.030 -12.434  11.935  1.00  0.00     0.293 HD
ENDBRANCH  15  18
BRANCH  17  20
ATOM     20  O   UNL     1      66.050 -13.307  13.669  1.00  0.00    -0.504 OA
ATOM     21  H   UNL     1      67.032 -13.210  13.886  1.00  0.00     0.293 HD
ENDBRANCH  17  20
ENDBRANCH   1  12
BRANCH   2  22
ATOM     22  O   UNL     1      65.356 -10.254  18.330  1.00  0.00    -0.502 OA
ATOM     23  H   UNL     1      65.987  -9.632  18.822  1.00  0.00     0.293 HD
ENDBRANCH   2  22
BRANCH   6  24
ATOM     24  O   UNL     1      64.671 -12.116  23.273  1.00  0.00    -0.507 OA
ATOM     25  H   UNL     1      64.119 -11.912  24.094  1.00  0.00     0.293 HD
ENDBRANCH   6  24
BRANCH   8  26
ATOM     26  O   UNL     1      63.004 -16.500  22.323  1.00  0.00    -0.508 OA
ATOM     27  H   UNL     1      62.030 -16.672  22.540  1.00  0.00     0.293 HD
ENDBRANCH   8  26
TORSDOF 6
ENDMDL
MODEL 5
REMARK VINA RESULT:    -5.798     14.757     18.447
REMARK INTER + INTRA:          -7.272
REMARK INTER:                  -7.380
REMARK INTRA:                   0.108
REMARK UNBOUND:                -0.288
REMARK SMILES O=c1c(O)c(-c2ccc(O)c(O)c2)oc2cc(O)cc(O)c12
REMARK SMILES IDX 5 1 3 2 2 3 1 4 22 5 20 6 19 7 17 8 16 9 15 10 14 11 6 12
REMARK SMILES IDX 7 13 8 14 9 15 13 16 11 17 10 18 12 20 4 22 21 24 18 26
REMARK H PARENT 10 19 12 21 4 23 21 25 18 27
REMARK Flexibility Score: inf
ROOT
ATOM      1  C   UNL     1      62.721 -14.045  15.559  1.00  0.00     0.180 A 
ATOM      2  C   UNL     1      63.381 -13.653  14.382  1.00  0.00     0.208 A 
ATOM      3  C   UNL     1      64.326 -12.616  14.444  1.00  0.00     0.238 A 
ATOM      4  O   UNL     1      64.954 -12.308  13.398  1.00  0.00    -0.285 OA
ATOM      5  C   UNL     1      64.588 -11.974  15.678  1.00  0.00     0.111 A 
ATOM      6  C   UNL     1      65.496 -10.886  15.848  1.00  0.00     0.134 A 
ATOM      7  C   UNL     1      65.773 -10.414  17.137  1.00  0.00     0.093 A 
ATOM      8  C   UNL     1      65.128 -10.945  18.253  1.00  0.00     0.123 A 
ATOM      9  C   UNL     1      64.194 -11.970  18.092  1.00  0.00     0.094 A 
ATOM     10  C   UNL     1      63.923 -12.486  16.823  1.00  0.00     0.146 A 
ATOM     11  O   UNL     1      63.036 -13.467  16.713  1.00  0.00    -0.452 OA
ENDROOT
BRANCH   1  12
ATOM     12  C   UNL     1      61.695 -15.112  15.570  1.00  0.00     0.025 A 
ATOM     13  C   UNL     1      60.750 -15.227  14.538  1.00  0.00     0.016 A 
ATOM     14  C   UNL     1      59.777 -16.226  14.581  1.00  0.00     0.051 A 
ATOM     15  C   UNL     1      59.717 -17.120  15.656  1.00  0.00     0.157 A 
ATOM     16  C   UNL     1      61.623 -15.993  16.660  1.00  0.00     0.062 A 
ATOM     17  C   UNL     1      60.650 -17.000  16.712  1.00  0.00     0.158 A 
BRANCH  15  18
ATOM     18  O   UNL     1      58.721 -18.099  15.636  1.00  0.00    -0.504 OA
ATOM     19  H   UNL     1      58.769 -18.963  16.157  1.00  0.00     0.293 HD
ENDBRANCH  15  18
BRANCH  17  20
ATOM     20  O   UNL     1      60.648 -17.848  17.822  1.00  0.00    -0.504 OA
ATOM     21  H   UNL     1      60.122 -17.673  18.665  1.00  0.00     0.293 HD
ENDBRANCH  17  20
ENDBRANCH   1  12
BRANCH   2  22
ATOM     22  O   UNL     1      63.124 -14.316  13.179  1.00  0.00    -0.502 OA
ATOM     23  H   UNL     1      63.236 -13.868  12.276  1.00  0.00     0.293 HD
ENDBRANCH   2  22
BRANCH   6  24
ATOM     24  O   UNL     1      66.125 -10.222  14.792  1.00  0.00    -0.507 OA
ATOM     25  H   UNL     1      65.644  -9.762  14.033  1.00  0.00     0.293 HD
ENDBRANCH   6  24
BRANCH   8  26
ATOM     26  O   UNL     1      65.417 -10.440  19.519  1.00  0.00    -0.508 OA
ATOM     27  H   UNL     1      65.578 -11.053  20.310  1.00  0.00     0.293 HD
ENDBRANCH   8  26
TORSDOF 6
ENDMDL
MODEL 6
REMARK VINA RESULT:    -5.746      2.072      7.040
REMARK INTER + INTRA:          -7.209
REMARK INTER:                  -7.013
REMARK INTRA:                  -0.196
REMARK UNBOUND:                -0.288
REMARK SMILES O=c1c(O)c(-c2ccc(O)c(O)c2)oc2cc(O)cc(O)c12
REMARK SMILES IDX 5 1 3 2 2 3 1 4 22 5 20 6 19 7 17 8 16 9 15 10 14 11 6 12
REMARK SMILES IDX 7 13 8 14 9 15 13 16 11 17 10 18 12 20 4 22 21 24 18 26
REMARK H PARENT 10 19 12 21 4 23 21 25 18 27
REMARK Flexibility Score: inf
ROOT
ATOM      1  C   UNL     1      58.250  -2.029  29.916  1.00  0.00     0.180 A 
ATOM      2  C   UNL     1      58.936  -1.538  31.040  1.00  0.00     0.208 A 
ATOM      3  C   UNL     1      60.319  -1.760  31.145  1.00  0.00     0.238 A 
ATOM      4  O   UNL     1      60.937  -1.270  32.125  1.00  0.00    -0.285 OA
ATOM      5  C   UNL     1      60.994  -2.484  30.133  1.00  0.00     0.111 A 
ATOM      6  C   UNL     1      62.386  -2.803  30.157  1.00  0.00     0.134 A 
ATOM      7  C   UNL     1      62.974  -3.411  29.040  1.00  0.00     0.093 A 
ATOM      8  C   UNL     1      62.210  -3.771  27.931  1.00  0.00     0.123 A 
ATOM      9  C   UNL     1      60.837  -3.517  27.922  1.00  0.00     0.094 A 
ATOM     10  C   UNL     1      60.229  -2.880  29.005  1.00  0.00     0.146 A 
ATOM     11  O   UNL     1      58.923  -2.648  28.953  1.00  0.00    -0.452 OA
ENDROOT
BRANCH   1  12
ATOM     12  C   UNL     1      56.789  -1.856  29.747  1.00  0.00     0.025 A 
ATOM     13  C   UNL     1      56.264  -0.999  28.767  1.00  0.00     0.016 A 
ATOM     14  C   UNL     1      54.884  -0.834  28.640  1.00  0.00     0.051 A 
ATOM     15  C   UNL     1      54.002  -1.506  29.495  1.00  0.00     0.157 A 
ATOM     16  C   UNL     1      55.909  -2.515  30.619  1.00  0.00     0.062 A 
ATOM     17  C   UNL     1      54.522  -2.355  30.500  1.00  0.00     0.158 A 
BRANCH  15  18
ATOM     18  O   UNL     1      52.633  -1.300  29.313  1.00  0.00    -0.504 OA
ATOM     19  H   UNL     1      52.048  -0.794  29.962  1.00  0.00     0.293 HD
ENDBRANCH  15  18
BRANCH  17  20
ATOM     20  O   UNL     1      53.707  -3.052  31.394  1.00  0.00    -0.504 OA
ATOM     21  H   UNL     1      53.836  -4.024  31.636  1.00  0.00     0.293 HD
ENDBRANCH  17  20
ENDBRANCH   1  12
BRANCH   2  22
ATOM     22  O   UNL     1      58.254  -0.806  32.016  1.00  0.00    -0.502 OA
ATOM     23  H   UNL     1      57.997  -1.202  32.913  1.00  0.00     0.293 HD
ENDBRANCH   2  22
BRANCH   6  24
ATOM     24  O   UNL     1      63.221  -2.570  31.252  1.00  0.00    -0.507 OA
ATOM     25  H   UNL     1      63.714  -1.706  31.427  1.00  0.00     0.293 HD
ENDBRANCH   6  24
BRANCH   8  26
ATOM     26  O   UNL     1      62.826  -4.388  26.844  1.00  0.00    -0.508 OA
ATOM     27  H   UNL     1      63.588  -3.945  26.345  1.00  0.00     0.293 HD
ENDBRANCH   8  26
TORSDOF 6
ENDMDL
MODEL 7
REMARK VINA RESULT:    -5.645     15.829     18.643
REMARK INTER + INTRA:          -7.088
REMARK INTER:                  -6.873
REMARK INTRA:                  -0.215
REMARK UNBOUND:                -0.288
REMARK SMILES O=c1c(O)c(-c2ccc(O)c(O)c2)oc2cc(O)cc(O)c12
REMARK SMILES IDX 5 1 3 2 2 3 1 4 22 5 20 6 19 7 17 8 16 9 15 10 14 11 6 12
REMARK SMILES IDX 7 13 8 14 9 15 13 16 11 17 10 18 12 20 4 22 21 24 18 26
REMARK H PARENT 10 19 12 21 4 23 21 25 18 27
REMARK Flexibility Score: inf
ROOT
ATOM      1  C   UNL     1      62.899 -15.063  17.043  1.00  0.00     0.180 A 
ATOM      2  C   UNL     1      63.064 -16.085  16.093  1.00  0.00     0.208 A 
ATOM      3  C   UNL     1      63.176 -15.742  14.735  1.00  0.00     0.238 A 
ATOM      4  O   UNL     1      63.379 -16.656  13.896  1.00  0.00    -0.285 OA
ATOM      5  C   UNL     1      63.105 -14.383  14.345  1.00  0.00     0.111 A 
ATOM      6  C   UNL     1      63.167 -13.924  12.994  1.00  0.00     0.134 A 
ATOM      7  C   UNL     1      63.218 -12.549  12.734  1.00  0.00     0.093 A 
ATOM      8  C   UNL     1      63.144 -11.617  13.768  1.00  0.00     0.123 A 
ATOM      9  C   UNL     1      63.024 -12.054  15.088  1.00  0.00     0.094 A 
ATOM     10  C   UNL     1      63.007 -13.419  15.382  1.00  0.00     0.146 A 
ATOM     11  O   UNL     1      62.901 -13.794  16.651  1.00  0.00    -0.452 OA
ENDROOT
BRANCH   1  12
ATOM     12  C   UNL     1      62.748 -15.347  18.488  1.00  0.00     0.025 A 
ATOM     13  C   UNL     1      63.773 -15.053  19.401  1.00  0.00     0.016 A 
ATOM     14  C   UNL     1      63.619 -15.351  20.756  1.00  0.00     0.051 A 
ATOM     15  C   UNL     1      62.449 -15.959  21.225  1.00  0.00     0.157 A 
ATOM     16  C   UNL     1      61.583 -15.977  18.952  1.00  0.00     0.062 A 
ATOM     17  C   UNL     1      61.418 -16.280  20.310  1.00  0.00     0.158 A 
BRANCH  15  18
ATOM     18  O   UNL     1      62.356 -16.227  22.592  1.00  0.00    -0.504 OA
ATOM     19  H   UNL     1      61.913 -15.611  23.259  1.00  0.00     0.293 HD
ENDBRANCH  15  18
BRANCH  17  20
ATOM     20  O   UNL     1      60.227 -16.895  20.701  1.00  0.00    -0.504 OA
ATOM     21  H   UNL     1      59.837 -17.708  20.248  1.00  0.00     0.293 HD
ENDBRANCH  17  20
ENDBRANCH   1  12
BRANCH   2  22
ATOM     22  O   UNL     1      63.153 -17.418  16.503  1.00  0.00    -0.502 OA
ATOM     23  H   UNL     1      63.505 -17.684  17.415  1.00  0.00     0.293 HD
ENDBRANCH   2  22
BRANCH   6  24
ATOM     24  O   UNL     1      63.153 -14.770  11.881  1.00  0.00    -0.507 OA
ATOM     25  H   UNL     1      62.987 -15.765  11.917  1.00  0.00     0.293 HD
ENDBRANCH   6  24
BRANCH   8  26
ATOM     26  O   UNL     1      63.182 -10.256  13.471  1.00  0.00    -0.508 OA
ATOM     27  H   UNL     1      63.700  -9.902  12.675  1.00  0.00     0.293 HD
ENDBRANCH   8  26
TORSDOF 6
ENDMDL
MODEL 8
REMARK VINA RESULT:    -5.556     14.851     17.113
REMARK INTER + INTRA:          -6.980
REMARK INTER:                  -6.659
REMARK INTRA:                  -0.321
REMARK UNBOUND:                -0.288
REMARK SMILES O=c1c(O)c(-c2ccc(O)c(O)c2)oc2cc(O)cc(O)c12
REMARK SMILES IDX 5 1 3 2 2 3 1 4 22 5 20 6 19 7 17 8 16 9 15 10 14 11 6 12
REMARK SMILES IDX 7 13 8 14 9 15 13 16 11 17 10 18 12 20 4 22 21 24 18 26
REMARK H PARENT 10 19 12 21 4 23 21 25 18 27
REMARK Flexibility Score: inf
ROOT
ATOM      1  C   UNL     1      62.720 -14.176  17.465  1.00  0.00     0.180 A 
ATOM      2  C   UNL     1      61.958 -15.353  17.374  1.00  0.00     0.208 A 
ATOM      3  C   UNL     1      61.871 -16.197  18.493  1.00  0.00     0.238 A 
ATOM      4  O   UNL     1      61.142 -17.220  18.422  1.00  0.00    -0.285 OA
ATOM      5  C   UNL     1      62.560 -15.862  19.682  1.00  0.00     0.111 A 
ATOM      6  C   UNL     1      62.575 -16.665  20.863  1.00  0.00     0.134 A 
ATOM      7  C   UNL     1      63.183 -16.172  22.025  1.00  0.00     0.093 A 
ATOM      8  C   UNL     1      63.833 -14.939  22.030  1.00  0.00     0.123 A 
ATOM      9  C   UNL     1      63.876 -14.172  20.864  1.00  0.00     0.094 A 
ATOM     10  C   UNL     1      63.247 -14.620  19.701  1.00  0.00     0.146 A 
ATOM     11  O   UNL     1      63.302 -13.857  18.616  1.00  0.00    -0.452 OA
ENDROOT
BRANCH   1  12
ATOM     12  C   UNL     1      62.880 -13.249  16.321  1.00  0.00     0.025 A 
ATOM     13  C   UNL     1      62.005 -12.168  16.130  1.00  0.00     0.016 A 
ATOM     14  C   UNL     1      62.161 -11.321  15.032  1.00  0.00     0.051 A 
ATOM     15  C   UNL     1      63.179 -11.542  14.097  1.00  0.00     0.157 A 
ATOM     16  C   UNL     1      63.888 -13.486  15.374  1.00  0.00     0.062 A 
ATOM     17  C   UNL     1      64.052 -12.641  14.268  1.00  0.00     0.158 A 
BRANCH  15  18
ATOM     18  O   UNL     1      63.282 -10.655  13.023  1.00  0.00    -0.504 OA
ATOM     19  H   UNL     1      62.488 -10.258  12.540  1.00  0.00     0.293 HD
ENDBRANCH  15  18
BRANCH  17  20
ATOM     20  O   UNL     1      65.085 -12.930  13.375  1.00  0.00    -0.504 OA
ATOM     21  H   UNL     1      66.002 -12.508  13.416  1.00  0.00     0.293 HD
ENDBRANCH  17  20
ENDBRANCH   1  12
BRANCH   2  22
ATOM     22  O   UNL     1      61.267 -15.653  16.196  1.00  0.00    -0.502 OA
ATOM     23  H   UNL     1      60.259 -15.755  16.167  1.00  0.00     0.293 HD
ENDBRANCH   2  22
BRANCH   6  24
ATOM     24  O   UNL     1      62.035 -17.951  20.939  1.00  0.00    -0.507 OA
ATOM     25  H   UNL     1      61.095 -18.198  20.666  1.00  0.00     0.293 HD
ENDBRANCH   6  24
BRANCH   8  26
ATOM     26  O   UNL     1      64.441 -14.487  23.199  1.00  0.00    -0.508 OA
ATOM     27  H   UNL     1      65.348 -14.832  23.492  1.00  0.00     0.293 HD
ENDBRANCH   8  26
TORSDOF 6
ENDMDL
