MODEL 1
REMARK VINA RESULT:    -3.713      0.000      0.000
REMARK INTER + INTRA:          -8.761
REMARK INTER:                  -6.968
REMARK INTRA:                  -1.793
REMARK UNBOUND:                -1.793
REMARK SMILES CCCCCCCCC=CCCCCCCCC(=O)[O-]
REMARK SMILES IDX 10 1 9 2 11 3 12 4 13 5 14 6 15 7 16 8 17 9 18 10 19 11
REMARK SMILES IDX 20 12 8 13 7 14 6 15 5 16 4 17 3 18 2 19 1 20
REMARK H PARENT
REMARK Flexibility Score: inf
ROOT
ATOM      1  C   UNL     1     -17.227 -22.387   5.067  1.00  0.00    -0.031 C 
ATOM      2  C   UNL     1     -17.798 -22.744   3.901  1.00  0.00    -0.031 C 
ENDROOT
BRANCH   1   3
ATOM      3  C   UNL     1     -16.996 -23.314   6.234  1.00  0.00     0.027 C 
BRANCH   3   4
ATOM      4  C   UNL     1     -15.771 -24.217   6.023  1.00  0.00     0.004 C 
BRANCH   4   5
ATOM      5  C   UNL     1     -14.674 -23.953   7.067  1.00  0.00     0.000 C 
BRANCH   5   6
ATOM      6  C   UNL     1     -15.282 -23.679   8.447  1.00  0.00     0.000 C 
BRANCH   6   7
ATOM      7  C   UNL     1     -14.598 -22.480   9.121  1.00  0.00     0.000 C 
BRANCH   7   8
ATOM      8  C   UNL     1     -14.162 -21.396   8.116  1.00  0.00     0.006 C 
BRANCH   8   9
ATOM      9  C   UNL     1     -14.796 -20.018   8.373  1.00  0.00     0.053 C 
BRANCH   9  10
ATOM     10  C   UNL     1     -16.105 -19.845   7.668  1.00  0.00     0.041 C 
ATOM     11  O   UNL     1     -17.171 -20.252   8.200  1.00  0.00    -0.550 OA
ATOM     12  O   UNL     1     -16.149 -19.230   6.423  1.00  0.00    -0.550 OA
ENDBRANCH   9  10
ENDBRANCH   8   9
ENDBRANCH   7   8
ENDBRANCH   6   7
ENDBRANCH   5   6
ENDBRANCH   4   5
ENDBRANCH   3   4
ENDBRANCH   1   3
BRANCH   2  13
ATOM     13  C   UNL     1     -18.248 -24.141   3.544  1.00  0.00     0.027 C 
BRANCH  13  14
ATOM     14  C   UNL     1     -17.556 -24.641   2.269  1.00  0.00     0.004 C 
BRANCH  14  15
ATOM     15  C   UNL     1     -16.328 -23.793   1.907  1.00  0.00     0.000 C 
BRANCH  15  16
ATOM     16  C   UNL     1     -16.011 -23.895   0.411  1.00  0.00     0.000 C 
BRANCH  16  17
ATOM     17  C   UNL     1     -15.066 -22.766  -0.028  1.00  0.00    -0.000 C 
BRANCH  17  18
ATOM     18  C   UNL     1     -14.238 -22.200   1.137  1.00  0.00    -0.000 C 
BRANCH  18  19
ATOM     19  C   UNL     1     -14.015 -20.685   1.023  1.00  0.00    -0.003 C 
ATOM     20  C   UNL     1     -15.107 -19.912   1.757  1.00  0.00     0.004 C 
ENDBRANCH  18  19
ENDBRANCH  17  18
ENDBRANCH  16  17
ENDBRANCH  15  16
ENDBRANCH  14  15
ENDBRANCH  13  14
ENDBRANCH   2  13
TORSDOF 15
ENDMDL
MODEL 2
REMARK VINA RESULT:    -3.431      3.087      6.735
REMARK INTER + INTRA:          -8.233
REMARK INTER:                  -6.310
REMARK INTRA:                  -1.923
REMARK UNBOUND:                -1.793
REMARK SMILES CCCCCCCCC=CCCCCCCCC(=O)[O-]
REMARK SMILES IDX 10 1 9 2 11 3 12 4 13 5 14 6 15 7 16 8 17 9 18 10 19 11
REMARK SMILES IDX 20 12 8 13 7 14 6 15 5 16 4 17 3 18 2 19 1 20
REMARK H PARENT
REMARK Flexibility Score: inf
ROOT
ATOM      1  C   UNL     1     -16.279 -19.742   6.300  1.00  0.00    -0.031 C 
ATOM      2  C   UNL     1     -16.101 -20.126   7.578  1.00  0.00    -0.031 C 
ENDROOT
BRANCH   1   3
ATOM      3  C   UNL     1     -16.561 -20.676   5.149  1.00  0.00     0.027 C 
BRANCH   3   4
ATOM      4  C   UNL     1     -16.678 -19.929   3.813  1.00  0.00     0.004 C 
BRANCH   4   5
ATOM      5  C   UNL     1     -16.089 -20.736   2.646  1.00  0.00     0.000 C 
BRANCH   5   6
ATOM      6  C   UNL     1     -15.298 -19.831   1.694  1.00  0.00     0.000 C 
BRANCH   6   7
ATOM      7  C   UNL     1     -14.047 -20.548   1.166  1.00  0.00     0.000 C 
BRANCH   7   8
ATOM      8  C   UNL     1     -14.245 -22.069   1.014  1.00  0.00     0.006 C 
BRANCH   8   9
ATOM      9  C   UNL     1     -14.279 -22.549  -0.447  1.00  0.00     0.053 C 
BRANCH   9  10
ATOM     10  C   UNL     1     -15.528 -23.305  -0.777  1.00  0.00     0.041 C 
ATOM     11  O   UNL     1     -16.327 -23.642   0.137  1.00  0.00    -0.550 OA
ATOM     12  O   UNL     1     -15.814 -23.635  -2.096  1.00  0.00    -0.550 OA
ENDBRANCH   9  10
ENDBRANCH   8   9
ENDBRANCH   7   8
ENDBRANCH   6   7
ENDBRANCH   5   6
ENDBRANCH   4   5
ENDBRANCH   3   4
ENDBRANCH   1   3
BRANCH   2  13
ATOM     13  C   UNL     1     -16.214 -21.545   8.085  1.00  0.00     0.027 C 
BRANCH  13  14
ATOM     14  C   UNL     1     -17.676 -21.928   8.349  1.00  0.00     0.004 C 
BRANCH  14  15
ATOM     15  C   UNL     1     -17.880 -23.450   8.372  1.00  0.00     0.000 C 
BRANCH  15  16
ATOM     16  C   UNL     1     -16.800 -24.162   7.550  1.00  0.00     0.000 C 
BRANCH  16  17
ATOM     17  C   UNL     1     -17.286 -24.428   6.117  1.00  0.00    -0.000 C 
BRANCH  17  18
ATOM     18  C   UNL     1     -16.144 -24.393   5.088  1.00  0.00    -0.000 C 
BRANCH  18  19
ATOM     19  C   UNL     1     -16.649 -24.205   3.650  1.00  0.00    -0.003 C 
ATOM     20  C   UNL     1     -18.083 -23.684   3.636  1.00  0.00     0.004 C 
ENDBRANCH  18  19
ENDBRANCH  17  18
ENDBRANCH  16  17
ENDBRANCH  15  16
ENDBRANCH  14  15
ENDBRANCH  13  14
ENDBRANCH   2  13
TORSDOF 15
ENDMDL
MODEL 3
REMARK VINA RESULT:    -3.357      1.408      2.367
REMARK INTER + INTRA:          -8.094
REMARK INTER:                  -6.678
REMARK INTRA:                  -1.416
REMARK UNBOUND:                -1.793
REMARK SMILES CCCCCCCCC=CCCCCCCCC(=O)[O-]
REMARK SMILES IDX 10 1 9 2 11 3 12 4 13 5 14 6 15 7 16 8 17 9 18 10 19 11
REMARK SMILES IDX 20 12 8 13 7 14 6 15 5 16 4 17 3 18 2 19 1 20
REMARK H PARENT
REMARK Flexibility Score: inf
ROOT
ATOM      1  C   UNL     1     -17.179 -22.280   5.465  1.00  0.00    -0.031 C 
ATOM      2  C   UNL     1     -17.708 -22.354   4.230  1.00  0.00    -0.031 C 
ENDROOT
BRANCH   1   3
ATOM      3  C   UNL     1     -16.818 -23.467   6.323  1.00  0.00     0.027 C 
BRANCH   3   4
ATOM      4  C   UNL     1     -17.282 -23.293   7.777  1.00  0.00     0.004 C 
BRANCH   4   5
ATOM      5  C   UNL     1     -16.102 -23.289   8.762  1.00  0.00     0.000 C 
BRANCH   5   6
ATOM      6  C   UNL     1     -14.775 -23.528   8.032  1.00  0.00     0.000 C 
BRANCH   6   7
ATOM      7  C   UNL     1     -13.920 -22.252   8.015  1.00  0.00     0.000 C 
BRANCH   7   8
ATOM      8  C   UNL     1     -14.552 -21.095   8.814  1.00  0.00     0.006 C 
BRANCH   8   9
ATOM      9  C   UNL     1     -14.611 -19.766   8.042  1.00  0.00     0.053 C 
BRANCH   9  10
ATOM     10  C   UNL     1     -15.968 -19.485   7.479  1.00  0.00     0.041 C 
ATOM     11  O   UNL     1     -16.999 -19.904   8.068  1.00  0.00    -0.550 OA
ATOM     12  O   UNL     1     -16.097 -18.755   6.305  1.00  0.00    -0.550 OA
ENDBRANCH   9  10
ENDBRANCH   8   9
ENDBRANCH   7   8
ENDBRANCH   6   7
ENDBRANCH   5   6
ENDBRANCH   4   5
ENDBRANCH   3   4
ENDBRANCH   1   3
BRANCH   2  13
ATOM     13  C   UNL     1     -17.973 -23.634   3.471  1.00  0.00     0.027 C 
BRANCH  13  14
ATOM     14  C   UNL     1     -16.738 -24.078   2.677  1.00  0.00     0.004 C 
BRANCH  14  15
ATOM     15  C   UNL     1     -16.102 -22.916   1.900  1.00  0.00     0.000 C 
BRANCH  15  16
ATOM     16  C   UNL     1     -15.422 -23.418   0.620  1.00  0.00     0.000 C 
BRANCH  16  17
ATOM     17  C   UNL     1     -16.455 -23.995  -0.360  1.00  0.00    -0.000 C 
BRANCH  17  18
ATOM     18  C   UNL     1     -16.178 -23.593  -1.817  1.00  0.00    -0.000 C 
BRANCH  18  19
ATOM     19  C   UNL     1     -15.295 -24.610  -2.554  1.00  0.00    -0.003 C 
ATOM     20  C   UNL     1     -14.448 -23.928  -3.625  1.00  0.00     0.004 C 
ENDBRANCH  18  19
ENDBRANCH  17  18
ENDBRANCH  16  17
ENDBRANCH  15  16
ENDBRANCH  14  15
ENDBRANCH  13  14
ENDBRANCH   2  13
TORSDOF 15
ENDMDL
MODEL 4
REMARK VINA RESULT:    -3.350      2.086      6.464
REMARK INTER + INTRA:          -8.082
REMARK INTER:                  -6.533
REMARK INTRA:                  -1.549
REMARK UNBOUND:                -1.793
REMARK SMILES CCCCCCCCC=CCCCCCCCC(=O)[O-]
REMARK SMILES IDX 10 1 9 2 11 3 12 4 13 5 14 6 15 7 16 8 17 9 18 10 19 11
REMARK SMILES IDX 20 12 8 13 7 14 6 15 5 16 4 17 3 18 2 19 1 20
REMARK H PARENT
REMARK Flexibility Score: inf
ROOT
ATOM      1  C   UNL     1     -17.652 -23.689   3.653  1.00  0.00    -0.031 C 
ATOM      2  C   UNL     1     -17.742 -23.806   4.991  1.00  0.00    -0.031 C 
ENDROOT
BRANCH   1   3
ATOM      3  C   UNL     1     -17.039 -24.718   2.736  1.00  0.00     0.027 C 
BRANCH   3   4
ATOM      4  C   UNL     1     -17.957 -25.056   1.551  1.00  0.00     0.004 C 
BRANCH   4   5
ATOM      5  C   UNL     1     -17.204 -25.030   0.212  1.00  0.00     0.000 C 
BRANCH   5   6
ATOM      6  C   UNL     1     -15.713 -24.748   0.425  1.00  0.00     0.000 C 
BRANCH   6   7
ATOM      7  C   UNL     1     -15.184 -23.757  -0.622  1.00  0.00     0.000 C 
BRANCH   7   8
ATOM      8  C   UNL     1     -14.607 -22.473   0.005  1.00  0.00     0.006 C 
BRANCH   8   9
ATOM      9  C   UNL     1     -15.392 -21.971   1.229  1.00  0.00     0.053 C 
BRANCH   9  10
ATOM     10  C   UNL     1     -15.039 -20.566   1.605  1.00  0.00     0.041 C 
ATOM     11  O   UNL     1     -13.989 -20.034   1.157  1.00  0.00    -0.550 OA
ATOM     12  O   UNL     1     -15.871 -19.842   2.448  1.00  0.00    -0.550 OA
ENDBRANCH   9  10
ENDBRANCH   8   9
ENDBRANCH   7   8
ENDBRANCH   6   7
ENDBRANCH   5   6
ENDBRANCH   4   5
ENDBRANCH   3   4
ENDBRANCH   1   3
BRANCH   2  13
ATOM     13  C   UNL     1     -17.303 -25.010   5.791  1.00  0.00     0.027 C 
BRANCH  13  14
ATOM     14  C   UNL     1     -17.351 -24.728   7.298  1.00  0.00     0.004 C 
BRANCH  14  15
ATOM     15  C   UNL     1     -16.039 -24.120   7.815  1.00  0.00     0.000 C 
BRANCH  15  16
ATOM     16  C   UNL     1     -16.312 -22.965   8.784  1.00  0.00     0.000 C 
BRANCH  16  17
ATOM     17  C   UNL     1     -17.522 -22.137   8.325  1.00  0.00    -0.000 C 
BRANCH  17  18
ATOM     18  C   UNL     1     -17.164 -20.667   8.051  1.00  0.00    -0.000 C 
BRANCH  18  19
ATOM     19  C   UNL     1     -16.261 -20.497   6.821  1.00  0.00    -0.003 C 
ATOM     20  C   UNL     1     -16.071 -19.022   6.480  1.00  0.00     0.004 C 
ENDBRANCH  18  19
ENDBRANCH  17  18
ENDBRANCH  16  17
ENDBRANCH  15  16
ENDBRANCH  14  15
ENDBRANCH  13  14
ENDBRANCH   2  13
TORSDOF 15
ENDMDL
MODEL 5
REMARK VINA RESULT:    -3.265      3.360      7.185
REMARK INTER + INTRA:          -7.922
REMARK INTER:                  -6.067
REMARK INTRA:                  -1.856
REMARK UNBOUND:                -1.793
REMARK SMILES CCCCCCCCC=CCCCCCCCC(=O)[O-]
REMARK SMILES IDX 10 1 9 2 11 3 12 4 13 5 14 6 15 7 16 8 17 9 18 10 19 11
REMARK SMILES IDX 20 12 8 13 7 14 6 15 5 16 4 17 3 18 2 19 1 20
REMARK H PARENT
REMARK Flexibility Score: inf
ROOT
ATOM      1  C   UNL     1     -17.742 -22.480   3.949  1.00  0.00    -0.031 C 
ATOM      2  C   UNL     1     -17.272 -22.146   5.166  1.00  0.00    -0.031 C 
ENDROOT
BRANCH   1   3
ATOM      3  C   UNL     1     -18.147 -23.872   3.531  1.00  0.00     0.027 C 
BRANCH   3   4
ATOM      4  C   UNL     1     -17.262 -24.416   2.400  1.00  0.00     0.004 C 
BRANCH   4   5
ATOM      5  C   UNL     1     -15.806 -24.612   2.850  1.00  0.00     0.000 C 
BRANCH   5   6
ATOM      6  C   UNL     1     -14.831 -23.992   1.843  1.00  0.00     0.000 C 
BRANCH   6   7
ATOM      7  C   UNL     1     -15.444 -22.752   1.175  1.00  0.00     0.000 C 
BRANCH   7   8
ATOM      8  C   UNL     1     -14.719 -22.350  -0.125  1.00  0.00     0.006 C 
BRANCH   8   9
ATOM      9  C   UNL     1     -14.302 -23.545  -0.999  1.00  0.00     0.053 C 
BRANCH   9  10
ATOM     10  C   UNL     1     -15.313 -23.869  -2.054  1.00  0.00     0.041 C 
ATOM     11  O   UNL     1     -14.940 -24.268  -3.189  1.00  0.00    -0.550 OA
ATOM     12  O   UNL     1     -16.669 -23.735  -1.783  1.00  0.00    -0.550 OA
ENDBRANCH   9  10
ENDBRANCH   8   9
ENDBRANCH   7   8
ENDBRANCH   6   7
ENDBRANCH   5   6
ENDBRANCH   4   5
ENDBRANCH   3   4
ENDBRANCH   1   3
BRANCH   2  13
ATOM     13  C   UNL     1     -17.130 -23.095   6.334  1.00  0.00     0.027 C 
BRANCH  13  14
ATOM     14  C   UNL     1     -15.721 -23.697   6.394  1.00  0.00     0.004 C 
BRANCH  14  15
ATOM     15  C   UNL     1     -15.287 -24.012   7.833  1.00  0.00     0.000 C 
BRANCH  15  16
ATOM     16  C   UNL     1     -14.148 -23.089   8.279  1.00  0.00     0.000 C 
BRANCH  16  17
ATOM     17  C   UNL     1     -14.699 -21.813   8.934  1.00  0.00    -0.000 C 
BRANCH  17  18
ATOM     18  C   UNL     1     -14.131 -20.531   8.303  1.00  0.00    -0.000 C 
BRANCH  18  19
ATOM     19  C   UNL     1     -15.208 -19.690   7.602  1.00  0.00    -0.003 C 
ATOM     20  C   UNL     1     -16.604 -20.063   8.095  1.00  0.00     0.004 C 
ENDBRANCH  18  19
ENDBRANCH  17  18
ENDBRANCH  16  17
ENDBRANCH  15  16
ENDBRANCH  14  15
ENDBRANCH  13  14
ENDBRANCH   2  13
TORSDOF 15
ENDMDL
MODEL 6
REMARK VINA RESULT:    -3.257      3.394      7.307
REMARK INTER + INTRA:          -7.907
REMARK INTER:                  -6.188
REMARK INTRA:                  -1.718
REMARK UNBOUND:                -1.793
REMARK SMILES CCCCCCCCC=CCCCCCCCC(=O)[O-]
REMARK SMILES IDX 10 1 9 2 11 3 12 4 13 5 14 6 15 7 16 8 17 9 18 10 19 11
REMARK SMILES IDX 20 12 8 13 7 14 6 15 5 16 4 17 3 18 2 19 1 20
REMARK H PARENT
REMARK Flexibility Score: inf
ROOT
ATOM      1  C   UNL     1     -17.202 -21.481   3.286  1.00  0.00    -0.031 C 
ATOM      2  C   UNL     1     -17.236 -22.251   4.390  1.00  0.00    -0.031 C 
ENDROOT
BRANCH   1   3
ATOM      3  C   UNL     1     -16.443 -20.183   3.162  1.00  0.00     0.027 C 
BRANCH   3   4
ATOM      4  C   UNL     1     -15.446 -20.205   1.993  1.00  0.00     0.004 C 
BRANCH   4   5
ATOM      5  C   UNL     1     -15.421 -21.567   1.282  1.00  0.00     0.000 C 
BRANCH   5   6
ATOM      6  C   UNL     1     -13.984 -22.070   1.108  1.00  0.00     0.000 C 
BRANCH   6   7
ATOM      7  C   UNL     1     -13.882 -23.568   1.432  1.00  0.00     0.000 C 
BRANCH   7   8
ATOM      8  C   UNL     1     -14.877 -24.425   0.624  1.00  0.00     0.006 C 
BRANCH   8   9
ATOM      9  C   UNL     1     -14.480 -24.616  -0.850  1.00  0.00     0.053 C 
BRANCH   9  10
ATOM     10  C   UNL     1     -15.480 -24.032  -1.797  1.00  0.00     0.041 C 
ATOM     11  O   UNL     1     -15.164 -23.808  -2.996  1.00  0.00    -0.550 OA
ATOM     12  O   UNL     1     -16.765 -23.738  -1.359  1.00  0.00    -0.550 OA
ENDBRANCH   9  10
ENDBRANCH   8   9
ENDBRANCH   7   8
ENDBRANCH   6   7
ENDBRANCH   5   6
ENDBRANCH   4   5
ENDBRANCH   3   4
ENDBRANCH   1   3
BRANCH   2  13
ATOM     13  C   UNL     1     -16.474 -21.977   5.666  1.00  0.00     0.027 C 
BRANCH  13  14
ATOM     14  C   UNL     1     -17.357 -22.195   6.901  1.00  0.00     0.004 C 
BRANCH  14  15
ATOM     15  C   UNL     1     -16.620 -21.859   8.205  1.00  0.00     0.000 C 
BRANCH  15  16
ATOM     16  C   UNL     1     -15.124 -22.173   8.089  1.00  0.00     0.000 C 
BRANCH  16  17
ATOM     17  C   UNL     1     -14.283 -20.894   8.224  1.00  0.00    -0.000 C 
BRANCH  17  18
ATOM     18  C   UNL     1     -15.143 -19.643   8.466  1.00  0.00    -0.000 C 
BRANCH  18  19
ATOM     19  C   UNL     1     -14.941 -18.569   7.386  1.00  0.00    -0.003 C 
ATOM     20  C   UNL     1     -16.111 -18.549   6.406  1.00  0.00     0.004 C 
ENDBRANCH  18  19
ENDBRANCH  17  18
ENDBRANCH  16  17
ENDBRANCH  15  16
ENDBRANCH  14  15
ENDBRANCH  13  14
ENDBRANCH   2  13
TORSDOF 15
ENDMDL
MODEL 7
REMARK VINA RESULT:    -3.236      1.944      3.148
REMARK INTER + INTRA:          -7.868
REMARK INTER:                  -5.754
REMARK INTRA:                  -2.114
REMARK UNBOUND:                -1.793
REMARK SMILES CCCCCCCCC=CCCCCCCCC(=O)[O-]
REMARK SMILES IDX 10 1 9 2 11 3 12 4 13 5 14 6 15 7 16 8 17 9 18 10 19 11
REMARK SMILES IDX 20 12 8 13 7 14 6 15 5 16 4 17 3 18 2 19 1 20
REMARK H PARENT
REMARK Flexibility Score: inf
ROOT
ATOM      1  C   UNL     1     -16.584 -20.394   4.086  1.00  0.00    -0.031 C 
ATOM      2  C   UNL     1     -17.245 -21.379   3.450  1.00  0.00    -0.031 C 
ENDROOT
BRANCH   1   3
ATOM      3  C   UNL     1     -16.515 -20.226   5.583  1.00  0.00     0.027 C 
BRANCH   3   4
ATOM      4  C   UNL     1     -16.148 -18.790   5.988  1.00  0.00     0.004 C 
BRANCH   4   5
ATOM      5  C   UNL     1     -15.309 -18.749   7.275  1.00  0.00     0.000 C 
BRANCH   5   6
ATOM      6  C   UNL     1     -15.585 -19.977   8.150  1.00  0.00     0.000 C 
BRANCH   6   7
ATOM      7  C   UNL     1     -14.346 -20.881   8.237  1.00  0.00     0.000 C 
BRANCH   7   8
ATOM      8  C   UNL     1     -14.700 -22.366   8.449  1.00  0.00     0.006 C 
BRANCH   8   9
ATOM      9  C   UNL     1     -16.152 -22.718   8.083  1.00  0.00     0.053 C 
BRANCH   9  10
ATOM     10  C   UNL     1     -16.266 -24.028   7.370  1.00  0.00     0.041 C 
ATOM     11  O   UNL     1     -17.398 -24.521   7.125  1.00  0.00    -0.550 OA
ATOM     12  O   UNL     1     -15.120 -24.705   6.970  1.00  0.00    -0.550 OA
ENDBRANCH   9  10
ENDBRANCH   8   9
ENDBRANCH   7   8
ENDBRANCH   6   7
ENDBRANCH   5   6
ENDBRANCH   4   5
ENDBRANCH   3   4
ENDBRANCH   1   3
BRANCH   2  13
ATOM     13  C   UNL     1     -17.977 -22.514   4.128  1.00  0.00     0.027 C 
BRANCH  13  14
ATOM     14  C   UNL     1     -17.749 -23.842   3.395  1.00  0.00     0.004 C 
BRANCH  14  15
ATOM     15  C   UNL     1     -16.345 -24.410   3.649  1.00  0.00     0.000 C 
BRANCH  15  16
ATOM     16  C   UNL     1     -15.619 -24.693   2.329  1.00  0.00     0.000 C 
BRANCH  16  17
ATOM     17  C   UNL     1     -16.412 -24.137   1.136  1.00  0.00    -0.000 C 
BRANCH  17  18
ATOM     18  C   UNL     1     -15.609 -23.117   0.314  1.00  0.00    -0.000 C 
BRANCH  18  19
ATOM     19  C   UNL     1     -14.437 -22.514   1.102  1.00  0.00    -0.003 C 
ATOM     20  C   UNL     1     -14.471 -20.989   1.056  1.00  0.00     0.004 C 
ENDBRANCH  18  19
ENDBRANCH  17  18
ENDBRANCH  16  17
ENDBRANCH  15  16
ENDBRANCH  14  15
ENDBRANCH  13  14
ENDBRANCH   2  13
TORSDOF 15
ENDMDL
MODEL 8
REMARK VINA RESULT:    -3.177      2.323      6.740
REMARK INTER + INTRA:          -7.756
REMARK INTER:                  -5.687
REMARK INTRA:                  -2.070
REMARK UNBOUND:                -1.793
REMARK SMILES CCCCCCCCC=CCCCCCCCC(=O)[O-]
REMARK SMILES IDX 10 1 9 2 11 3 12 4 13 5 14 6 15 7 16 8 17 9 18 10 19 11
REMARK SMILES IDX 20 12 8 13 7 14 6 15 5 16 4 17 3 18 2 19 1 20
REMARK H PARENT
REMARK Flexibility Score: inf
ROOT
ATOM      1  C   UNL     1     -16.569 -20.273   5.243  1.00  0.00    -0.031 C 
ATOM      2  C   UNL     1     -16.189 -19.592   6.340  1.00  0.00    -0.031 C 
ENDROOT
BRANCH   1   3
ATOM      3  C   UNL     1     -17.039 -21.706   5.235  1.00  0.00     0.027 C 
BRANCH   3   4
ATOM      4  C   UNL     1     -17.710 -22.088   3.907  1.00  0.00     0.004 C 
BRANCH   4   5
ATOM      5  C   UNL     1     -18.214 -23.540   3.912  1.00  0.00     0.000 C 
BRANCH   5   6
ATOM      6  C   UNL     1     -17.131 -24.500   3.408  1.00  0.00     0.000 C 
BRANCH   6   7
ATOM      7  C   UNL     1     -17.340 -24.834   1.923  1.00  0.00     0.000 C 
BRANCH   7   8
ATOM      8  C   UNL     1     -16.078 -24.591   1.070  1.00  0.00     0.006 C 
BRANCH   8   9
ATOM      9  C   UNL     1     -15.124 -23.537   1.657  1.00  0.00     0.053 C 
BRANCH   9  10
ATOM     10  C   UNL     1     -15.140 -22.253   0.887  1.00  0.00     0.041 C 
ATOM     11  O   UNL     1     -15.034 -22.264  -0.367  1.00  0.00    -0.550 OA
ATOM     12  O   UNL     1     -15.276 -21.043   1.556  1.00  0.00    -0.550 OA
ENDBRANCH   9  10
ENDBRANCH   8   9
ENDBRANCH   7   8
ENDBRANCH   6   7
ENDBRANCH   5   6
ENDBRANCH   4   5
ENDBRANCH   3   4
ENDBRANCH   1   3
BRANCH   2  13
ATOM     13  C   UNL     1     -16.228 -20.126   7.753  1.00  0.00     0.027 C 
BRANCH  13  14
ATOM     14  C   UNL     1     -14.859 -20.005   8.433  1.00  0.00     0.004 C 
BRANCH  14  15
ATOM     15  C   UNL     1     -14.237 -21.377   8.730  1.00  0.00     0.000 C 
BRANCH  15  16
ATOM     16  C   UNL     1     -15.223 -22.508   8.418  1.00  0.00     0.000 C 
BRANCH  16  17
ATOM     17  C   UNL     1     -14.651 -23.456   7.353  1.00  0.00    -0.000 C 
BRANCH  17  18
ATOM     18  C   UNL     1     -15.331 -24.835   7.361  1.00  0.00    -0.000 C 
BRANCH  18  19
ATOM     19  C   UNL     1     -16.619 -24.855   8.197  1.00  0.00    -0.003 C 
ATOM     20  C   UNL     1     -17.855 -24.832   7.301  1.00  0.00     0.004 C 
ENDBRANCH  18  19
ENDBRANCH  17  18
ENDBRANCH  16  17
ENDBRANCH  15  16
ENDBRANCH  14  15
ENDBRANCH  13  14
ENDBRANCH   2  13
TORSDOF 15
ENDMDL
MODEL 9
REMARK VINA RESULT:    -3.148      1.531      3.176
REMARK INTER + INTRA:          -7.702
REMARK INTER:                  -5.809
REMARK INTRA:                  -1.893
REMARK UNBOUND:                -1.793
REMARK SMILES CCCCCCCCC=CCCCCCCCC(=O)[O-]
REMARK SMILES IDX 10 1 9 2 11 3 12 4 13 5 14 6 15 7 16 8 17 9 18 10 19 11
REMARK SMILES IDX 20 12 8 13 7 14 6 15 5 16 4 17 3 18 2 19 1 20
REMARK H PARENT
REMARK Flexibility Score: inf
ROOT
ATOM      1  C   UNL     1     -16.560 -20.647   3.339  1.00  0.00    -0.031 C 
ATOM      2  C   UNL     1     -15.712 -20.477   2.307  1.00  0.00    -0.031 C 
ENDROOT
BRANCH   1   3
ATOM      3  C   UNL     1     -17.466 -21.838   3.524  1.00  0.00     0.027 C 
BRANCH   3   4
ATOM      4  C   UNL     1     -17.410 -22.390   4.957  1.00  0.00     0.004 C 
BRANCH   4   5
ATOM      5  C   UNL     1     -16.718 -23.760   5.020  1.00  0.00     0.000 C 
BRANCH   5   6
ATOM      6  C   UNL     1     -15.847 -23.879   6.276  1.00  0.00     0.000 C 
BRANCH   6   7
ATOM      7  C   UNL     1     -16.627 -23.452   7.529  1.00  0.00     0.000 C 
BRANCH   7   8
ATOM      8  C   UNL     1     -15.835 -22.481   8.427  1.00  0.00     0.006 C 
BRANCH   8   9
ATOM      9  C   UNL     1     -15.252 -21.273   7.674  1.00  0.00     0.053 C 
BRANCH   9  10
ATOM     10  C   UNL     1     -16.221 -20.138   7.566  1.00  0.00     0.041 C 
ATOM     11  O   UNL     1     -16.014 -19.202   6.750  1.00  0.00    -0.550 OA
ATOM     12  O   UNL     1     -17.358 -20.115   8.364  1.00  0.00    -0.550 OA
ENDBRANCH   9  10
ENDBRANCH   8   9
ENDBRANCH   7   8
ENDBRANCH   6   7
ENDBRANCH   5   6
ENDBRANCH   4   5
ENDBRANCH   3   4
ENDBRANCH   1   3
BRANCH   2  13
ATOM     13  C   UNL     1     -15.482 -21.475   1.196  1.00  0.00     0.027 C 
BRANCH  13  14
ATOM     14  C   UNL     1     -14.410 -22.502   1.583  1.00  0.00     0.004 C 
BRANCH  14  15
ATOM     15  C   UNL     1     -14.883 -23.945   1.356  1.00  0.00     0.000 C 
BRANCH  15  16
ATOM     16  C   UNL     1     -16.369 -23.985   0.982  1.00  0.00     0.000 C 
BRANCH  16  17
ATOM     17  C   UNL     1     -16.576 -24.691  -0.367  1.00  0.00    -0.000 C 
BRANCH  17  18
ATOM     18  C   UNL     1     -15.292 -24.746  -1.211  1.00  0.00    -0.000 C 
BRANCH  18  19
ATOM     19  C   UNL     1     -15.306 -23.744  -2.375  1.00  0.00    -0.003 C 
ATOM     20  C   UNL     1     -14.609 -24.321  -3.603  1.00  0.00     0.004 C 
ENDBRANCH  18  19
ENDBRANCH  17  18
ENDBRANCH  16  17
ENDBRANCH  15  16
ENDBRANCH  14  15
ENDBRANCH  13  14
ENDBRANCH   2  13
TORSDOF 15
ENDMDL
