MODEL 1
REMARK VINA RESULT:    -3.832      0.000      0.000
REMARK INTER + INTRA:          -8.566
REMARK INTER:                  -7.416
REMARK INTRA:                  -1.150
REMARK UNBOUND:                -1.150
REMARK SMILES CCCCCCCCCCCCCCCCCC(=O)[O-]
REMARK SMILES IDX 10 1 11 2 12 3 13 4 14 5 15 6 16 7 17 8 18 9 19 10 20 11
REMARK SMILES IDX 9 12 8 13 7 14 6 15 5 16 4 17 3 18 2 19 1 20
REMARK H PARENT
REMARK Flexibility Score: inf
ROOT
ATOM      1  C   UNL     1       1.931  23.218  21.585  1.00  0.00     0.000 C 
ENDROOT
BRANCH   1   2
ATOM      2  C   UNL     1       1.146  22.383  22.606  1.00  0.00     0.000 C 
BRANCH   2   3
ATOM      3  C   UNL     1       1.848  22.383  23.972  1.00  0.00     0.000 C 
BRANCH   3   4
ATOM      4  C   UNL     1       1.045  23.126  25.052  1.00  0.00     0.000 C 
BRANCH   4   5
ATOM      5  C   UNL     1       1.827  23.285  26.366  1.00  0.00     0.000 C 
BRANCH   5   6
ATOM      6  C   UNL     1       3.061  22.368  26.441  1.00  0.00     0.000 C 
BRANCH   6   7
ATOM      7  C   UNL     1       4.389  23.132  26.629  1.00  0.00     0.006 C 
BRANCH   7   8
ATOM      8  C   UNL     1       4.596  24.206  25.555  1.00  0.00     0.053 C 
BRANCH   8   9
ATOM      9  C   UNL     1       5.906  24.008  24.861  1.00  0.00     0.041 C 
ATOM     10  O   UNL     1       6.701  23.113  25.251  1.00  0.00    -0.550 OA
ATOM     11  O   UNL     1       6.227  24.777  23.750  1.00  0.00    -0.550 OA
ENDBRANCH   8   9
ENDBRANCH   7   8
ENDBRANCH   6   7
ENDBRANCH   5   6
ENDBRANCH   4   5
ENDBRANCH   3   4
ENDBRANCH   2   3
ENDBRANCH   1   2
BRANCH   1  12
ATOM     12  C   UNL     1       3.086  23.971  22.263  1.00  0.00     0.000 C 
BRANCH  12  13
ATOM     13  C   UNL     1       2.645  25.319  22.856  1.00  0.00    -0.000 C 
BRANCH  13  14
ATOM     14  C   UNL     1       1.755  26.126  21.898  1.00  0.00    -0.000 C 
BRANCH  14  15
ATOM     15  C   UNL     1       1.051  27.272  22.640  1.00  0.00    -0.000 C 
BRANCH  15  16
ATOM     16  C   UNL     1       0.622  28.414  21.704  1.00  0.00    -0.000 C 
BRANCH  16  17
ATOM     17  C   UNL     1      -0.634  28.066  20.886  1.00  0.00    -0.000 C 
BRANCH  17  18
ATOM     18  C   UNL     1      -1.400  29.316  20.423  1.00  0.00    -0.000 C 
BRANCH  18  19
ATOM     19  C   UNL     1      -0.468  30.456  19.989  1.00  0.00    -0.003 C 
ATOM     20  C   UNL     1      -1.265  31.682  19.552  1.00  0.00     0.004 C 
ENDBRANCH  18  19
ENDBRANCH  17  18
ENDBRANCH  16  17
ENDBRANCH  15  16
ENDBRANCH  14  15
ENDBRANCH  13  14
ENDBRANCH  12  13
ENDBRANCH   1  12
TORSDOF 16
ENDMDL
MODEL 2
REMARK VINA RESULT:    -3.728      3.238      7.770
REMARK INTER + INTRA:          -8.365
REMARK INTER:                  -7.182
REMARK INTRA:                  -1.183
REMARK UNBOUND:                -1.150
REMARK SMILES CCCCCCCCCCCCCCCCCC(=O)[O-]
REMARK SMILES IDX 10 1 11 2 12 3 13 4 14 5 15 6 16 7 17 8 18 9 19 10 20 11
REMARK SMILES IDX 9 12 8 13 7 14 6 15 5 16 4 17 3 18 2 19 1 20
REMARK H PARENT
REMARK Flexibility Score: inf
ROOT
ATOM      1  C   UNL     1       1.507  22.827  22.623  1.00  0.00     0.000 C 
ENDROOT
BRANCH   1   2
ATOM      2  C   UNL     1       2.651  23.637  22.002  1.00  0.00     0.000 C 
BRANCH   2   3
ATOM      3  C   UNL     1       2.632  25.090  22.504  1.00  0.00     0.000 C 
BRANCH   3   4
ATOM      4  C   UNL     1       1.520  25.928  21.852  1.00  0.00     0.000 C 
BRANCH   4   5
ATOM      5  C   UNL     1       1.832  27.433  21.861  1.00  0.00     0.000 C 
BRANCH   5   6
ATOM      6  C   UNL     1       0.567  28.304  21.945  1.00  0.00     0.000 C 
BRANCH   6   7
ATOM      7  C   UNL     1      -0.341  28.197  20.701  1.00  0.00     0.006 C 
BRANCH   7   8
ATOM      8  C   UNL     1      -1.344  29.355  20.615  1.00  0.00     0.053 C 
BRANCH   8   9
ATOM      9  C   UNL     1      -0.693  30.568  20.031  1.00  0.00     0.041 C 
ATOM     10  O   UNL     1      -1.397  31.521  19.604  1.00  0.00    -0.550 OA
ATOM     11  O   UNL     1       0.692  30.670  20.005  1.00  0.00    -0.550 OA
ENDBRANCH   8   9
ENDBRANCH   7   8
ENDBRANCH   6   7
ENDBRANCH   5   6
ENDBRANCH   4   5
ENDBRANCH   3   4
ENDBRANCH   2   3
ENDBRANCH   1   2
BRANCH   1  12
ATOM     12  C   UNL     1       1.797  22.504  24.097  1.00  0.00     0.000 C 
BRANCH  12  13
ATOM     13  C   UNL     1       0.932  23.329  25.064  1.00  0.00    -0.000 C 
BRANCH  13  14
ATOM     14  C   UNL     1       1.642  23.618  26.396  1.00  0.00    -0.000 C 
BRANCH  14  15
ATOM     15  C   UNL     1       2.902  22.752  26.543  1.00  0.00    -0.000 C 
BRANCH  15  16
ATOM     16  C   UNL     1       4.170  23.583  26.799  1.00  0.00    -0.000 C 
BRANCH  16  17
ATOM     17  C   UNL     1       4.641  24.341  25.545  1.00  0.00    -0.000 C 
BRANCH  17  18
ATOM     18  C   UNL     1       6.013  25.006  25.740  1.00  0.00    -0.000 C 
BRANCH  18  19
ATOM     19  C   UNL     1       6.802  25.135  24.429  1.00  0.00    -0.003 C 
ATOM     20  C   UNL     1       6.486  23.982  23.481  1.00  0.00     0.004 C 
ENDBRANCH  18  19
ENDBRANCH  17  18
ENDBRANCH  16  17
ENDBRANCH  15  16
ENDBRANCH  14  15
ENDBRANCH  13  14
ENDBRANCH  12  13
ENDBRANCH   1  12
TORSDOF 16
ENDMDL
MODEL 3
REMARK VINA RESULT:    -3.595      3.318      7.224
REMARK INTER + INTRA:          -8.107
REMARK INTER:                  -6.370
REMARK INTRA:                  -1.738
REMARK UNBOUND:                -1.150
REMARK SMILES CCCCCCCCCCCCCCCCCC(=O)[O-]
REMARK SMILES IDX 10 1 11 2 12 3 13 4 14 5 15 6 16 7 17 8 18 9 19 10 20 11
REMARK SMILES IDX 9 12 8 13 7 14 6 15 5 16 4 17 3 18 2 19 1 20
REMARK H PARENT
REMARK Flexibility Score: inf
ROOT
ATOM      1  C   UNL     1       5.221  24.390  23.846  1.00  0.00     0.000 C 
ENDROOT
BRANCH   1   2
ATOM      2  C   UNL     1       3.739  23.999  23.778  1.00  0.00     0.000 C 
BRANCH   2   3
ATOM      3  C   UNL     1       3.228  24.031  22.330  1.00  0.00     0.000 C 
BRANCH   3   4
ATOM      4  C   UNL     1       1.839  24.679  22.205  1.00  0.00     0.000 C 
BRANCH   4   5
ATOM      5  C   UNL     1       1.913  26.161  21.803  1.00  0.00     0.000 C 
BRANCH   5   6
ATOM      6  C   UNL     1       0.895  27.035  22.557  1.00  0.00     0.000 C 
BRANCH   6   7
ATOM      7  C   UNL     1       0.752  28.458  21.977  1.00  0.00     0.006 C 
BRANCH   7   8
ATOM      8  C   UNL     1      -0.329  28.536  20.893  1.00  0.00     0.053 C 
BRANCH   8   9
ATOM      9  C   UNL     1      -0.378  29.907  20.298  1.00  0.00     0.041 C 
ATOM     10  O   UNL     1      -1.484  30.481  20.117  1.00  0.00    -0.550 OA
ATOM     11  O   UNL     1       0.802  30.574  19.992  1.00  0.00    -0.550 OA
ENDBRANCH   8   9
ENDBRANCH   7   8
ENDBRANCH   6   7
ENDBRANCH   5   6
ENDBRANCH   4   5
ENDBRANCH   3   4
ENDBRANCH   2   3
ENDBRANCH   1   2
BRANCH   1  12
ATOM     12  C   UNL     1       5.679  24.560  25.302  1.00  0.00     0.000 C 
BRANCH  12  13
ATOM     13  C   UNL     1       4.600  24.141  26.314  1.00  0.00    -0.000 C 
BRANCH  13  14
ATOM     14  C   UNL     1       4.936  22.823  27.029  1.00  0.00    -0.000 C 
BRANCH  14  15
ATOM     15  C   UNL     1       3.696  21.921  27.124  1.00  0.00    -0.000 C 
BRANCH  15  16
ATOM     16  C   UNL     1       2.379  22.714  27.093  1.00  0.00    -0.000 C 
BRANCH  16  17
ATOM     17  C   UNL     1       1.504  22.356  25.879  1.00  0.00    -0.000 C 
BRANCH  17  18
ATOM     18  C   UNL     1       0.578  23.510  25.461  1.00  0.00    -0.000 C 
BRANCH  18  19
ATOM     19  C   UNL     1       0.495  24.619  26.520  1.00  0.00    -0.003 C 
ATOM     20  C   UNL     1       0.099  25.951  25.891  1.00  0.00     0.004 C 
ENDBRANCH  18  19
ENDBRANCH  17  18
ENDBRANCH  16  17
ENDBRANCH  15  16
ENDBRANCH  14  15
ENDBRANCH  13  14
ENDBRANCH  12  13
ENDBRANCH   1  12
TORSDOF 16
ENDMDL
MODEL 4
REMARK VINA RESULT:    -3.492      0.905      1.193
REMARK INTER + INTRA:          -7.908
REMARK INTER:                  -6.540
REMARK INTRA:                  -1.368
REMARK UNBOUND:                -1.150
REMARK SMILES CCCCCCCCCCCCCCCCCC(=O)[O-]
REMARK SMILES IDX 10 1 11 2 12 3 13 4 14 5 15 6 16 7 17 8 18 9 19 10 20 11
REMARK SMILES IDX 9 12 8 13 7 14 6 15 5 16 4 17 3 18 2 19 1 20
REMARK H PARENT
REMARK Flexibility Score: inf
ROOT
ATOM      1  C   UNL     1       2.622  23.254  23.290  1.00  0.00     0.000 C 
ENDROOT
BRANCH   1   2
ATOM      2  C   UNL     1       1.357  22.555  23.805  1.00  0.00     0.000 C 
BRANCH   2   3
ATOM      3  C   UNL     1       0.651  23.411  24.868  1.00  0.00     0.000 C 
BRANCH   3   4
ATOM      4  C   UNL     1       1.629  24.266  25.689  1.00  0.00     0.000 C 
BRANCH   4   5
ATOM      5  C   UNL     1       2.305  23.471  26.818  1.00  0.00     0.000 C 
BRANCH   5   6
ATOM      6  C   UNL     1       3.773  23.875  27.037  1.00  0.00     0.000 C 
BRANCH   6   7
ATOM      7  C   UNL     1       4.785  22.911  26.381  1.00  0.00     0.006 C 
BRANCH   7   8
ATOM      8  C   UNL     1       6.191  23.517  26.295  1.00  0.00     0.053 C 
BRANCH   8   9
ATOM      9  C   UNL     1       6.211  24.657  25.327  1.00  0.00     0.041 C 
ATOM     10  O   UNL     1       6.603  25.795  25.696  1.00  0.00    -0.550 OA
ATOM     11  O   UNL     1       5.847  24.451  24.002  1.00  0.00    -0.550 OA
ENDBRANCH   8   9
ENDBRANCH   7   8
ENDBRANCH   6   7
ENDBRANCH   5   6
ENDBRANCH   4   5
ENDBRANCH   3   4
ENDBRANCH   2   3
ENDBRANCH   1   2
BRANCH   1  12
ATOM     12  C   UNL     1       2.360  23.941  21.941  1.00  0.00     0.000 C 
BRANCH  12  13
ATOM     13  C   UNL     1       2.507  25.469  22.017  1.00  0.00    -0.000 C 
BRANCH  13  14
ATOM     14  C   UNL     1       1.219  26.210  21.627  1.00  0.00    -0.000 C 
BRANCH  14  15
ATOM     15  C   UNL     1       1.095  27.534  22.395  1.00  0.00    -0.000 C 
BRANCH  15  16
ATOM     16  C   UNL     1       0.530  28.674  21.531  1.00  0.00    -0.000 C 
BRANCH  16  17
ATOM     17  C   UNL     1      -0.766  28.276  20.803  1.00  0.00    -0.000 C 
BRANCH  17  18
ATOM     18  C   UNL     1      -1.578  29.496  20.339  1.00  0.00    -0.000 C 
BRANCH  18  19
ATOM     19  C   UNL     1      -0.693  30.698  19.980  1.00  0.00    -0.003 C 
ATOM     20  C   UNL     1      -1.520  31.830  19.378  1.00  0.00     0.004 C 
ENDBRANCH  18  19
ENDBRANCH  17  18
ENDBRANCH  16  17
ENDBRANCH  15  16
ENDBRANCH  14  15
ENDBRANCH  13  14
ENDBRANCH  12  13
ENDBRANCH   1  12
TORSDOF 16
ENDMDL
MODEL 5
REMARK VINA RESULT:    -3.302      3.330      7.042
REMARK INTER + INTRA:          -7.541
REMARK INTER:                  -5.337
REMARK INTRA:                  -2.204
REMARK UNBOUND:                -1.150
REMARK SMILES CCCCCCCCCCCCCCCCCC(=O)[O-]
REMARK SMILES IDX 10 1 11 2 12 3 13 4 14 5 15 6 16 7 17 8 18 9 19 10 20 11
REMARK SMILES IDX 9 12 8 13 7 14 6 15 5 16 4 17 3 18 2 19 1 20
REMARK H PARENT
REMARK Flexibility Score: inf
ROOT
ATOM      1  C   UNL     1       0.612  22.946  25.713  1.00  0.00     0.000 C 
ENDROOT
BRANCH   1   2
ATOM      2  C   UNL     1       0.507  24.018  26.804  1.00  0.00     0.000 C 
BRANCH   2   3
ATOM      3  C   UNL     1       0.166  25.388  26.198  1.00  0.00     0.000 C 
BRANCH   3   4
ATOM      4  C   UNL     1       0.403  25.441  24.680  1.00  0.00     0.000 C 
BRANCH   4   5
ATOM      5  C   UNL     1       0.844  26.833  24.199  1.00  0.00     0.000 C 
BRANCH   5   6
ATOM      6  C   UNL     1       1.041  26.904  22.675  1.00  0.00     0.000 C 
BRANCH   6   7
ATOM      7  C   UNL     1       0.698  28.282  22.070  1.00  0.00     0.006 C 
BRANCH   7   8
ATOM      8  C   UNL     1      -0.283  28.171  20.897  1.00  0.00     0.053 C 
BRANCH   8   9
ATOM      9  C   UNL     1      -0.659  29.530  20.398  1.00  0.00     0.041 C 
ATOM     10  O   UNL     1      -1.866  29.887  20.378  1.00  0.00    -0.550 OA
ATOM     11  O   UNL     1       0.329  30.424  20.003  1.00  0.00    -0.550 OA
ENDBRANCH   8   9
ENDBRANCH   7   8
ENDBRANCH   6   7
ENDBRANCH   5   6
ENDBRANCH   4   5
ENDBRANCH   3   4
ENDBRANCH   2   3
ENDBRANCH   1   2
BRANCH   1  12
ATOM     12  C   UNL     1       1.907  22.133  25.863  1.00  0.00     0.000 C 
BRANCH  12  13
ATOM     13  C   UNL     1       2.704  22.518  27.120  1.00  0.00    -0.000 C 
BRANCH  13  14
ATOM     14  C   UNL     1       4.171  22.856  26.811  1.00  0.00    -0.000 C 
BRANCH  14  15
ATOM     15  C   UNL     1       4.266  24.052  25.851  1.00  0.00    -0.000 C 
BRANCH  15  16
ATOM     16  C   UNL     1       5.427  23.923  24.852  1.00  0.00    -0.000 C 
BRANCH  16  17
ATOM     17  C   UNL     1       4.996  24.220  23.405  1.00  0.00    -0.000 C 
BRANCH  17  18
ATOM     18  C   UNL     1       3.472  24.351  23.260  1.00  0.00    -0.000 C 
BRANCH  18  19
ATOM     19  C   UNL     1       2.943  23.729  21.959  1.00  0.00    -0.003 C 
ATOM     20  C   UNL     1       1.736  22.836  22.228  1.00  0.00     0.004 C 
ENDBRANCH  18  19
ENDBRANCH  17  18
ENDBRANCH  16  17
ENDBRANCH  15  16
ENDBRANCH  14  15
ENDBRANCH  13  14
ENDBRANCH  12  13
ENDBRANCH   1  12
TORSDOF 16
ENDMDL
MODEL 6
REMARK VINA RESULT:    -3.187      4.188      9.115
REMARK INTER + INTRA:          -7.318
REMARK INTER:                  -6.162
REMARK INTRA:                  -1.155
REMARK UNBOUND:                -1.150
REMARK SMILES CCCCCCCCCCCCCCCCCC(=O)[O-]
REMARK SMILES IDX 10 1 11 2 12 3 13 4 14 5 15 6 16 7 17 8 18 9 19 10 20 11
REMARK SMILES IDX 9 12 8 13 7 14 6 15 5 16 4 17 3 18 2 19 1 20
REMARK H PARENT
REMARK Flexibility Score: inf
ROOT
ATOM      1  C   UNL     1       5.693  21.669  26.814  1.00  0.00     0.000 C 
ENDROOT
BRANCH   1   2
ATOM      2  C   UNL     1       5.902  23.146  26.458  1.00  0.00     0.000 C 
BRANCH   2   3
ATOM      3  C   UNL     1       4.569  23.910  26.478  1.00  0.00     0.000 C 
BRANCH   3   4
ATOM      4  C   UNL     1       3.369  23.020  26.118  1.00  0.00     0.000 C 
BRANCH   4   5
ATOM      5  C   UNL     1       2.059  23.815  25.994  1.00  0.00     0.000 C 
BRANCH   5   6
ATOM      6  C   UNL     1       1.130  23.269  24.896  1.00  0.00     0.000 C 
BRANCH   6   7
ATOM      7  C   UNL     1       1.875  22.509  23.778  1.00  0.00     0.006 C 
BRANCH   7   8
ATOM      8  C   UNL     1       1.839  23.264  22.443  1.00  0.00     0.053 C 
BRANCH   8   9
ATOM      9  C   UNL     1       2.692  24.490  22.511  1.00  0.00     0.041 C 
ATOM     10  O   UNL     1       3.874  24.418  22.939  1.00  0.00    -0.550 OA
ATOM     11  O   UNL     1       2.200  25.706  22.053  1.00  0.00    -0.550 OA
ENDBRANCH   8   9
ENDBRANCH   7   8
ENDBRANCH   6   7
ENDBRANCH   5   6
ENDBRANCH   4   5
ENDBRANCH   3   4
ENDBRANCH   2   3
ENDBRANCH   1   2
BRANCH   1  12
ATOM     12  C   UNL     1       6.927  20.834  26.440  1.00  0.00     0.000 C 
BRANCH  12  13
ATOM     13  C   UNL     1       6.910  19.435  27.077  1.00  0.00    -0.000 C 
BRANCH  13  14
ATOM     14  C   UNL     1       5.976  18.460  26.343  1.00  0.00    -0.000 C 
BRANCH  14  15
ATOM     15  C   UNL     1       6.672  17.858  25.113  1.00  0.00    -0.000 C 
BRANCH  15  16
ATOM     16  C   UNL     1       5.811  16.804  24.397  1.00  0.00    -0.000 C 
BRANCH  16  17
ATOM     17  C   UNL     1       4.305  17.104  24.501  1.00  0.00    -0.000 C 
BRANCH  17  18
ATOM     18  C   UNL     1       3.445  15.833  24.413  1.00  0.00    -0.000 C 
BRANCH  18  19
ATOM     19  C   UNL     1       2.753  15.491  25.740  1.00  0.00    -0.003 C 
ATOM     20  C   UNL     1       1.280  15.155  25.523  1.00  0.00     0.004 C 
ENDBRANCH  18  19
ENDBRANCH  17  18
ENDBRANCH  16  17
ENDBRANCH  15  16
ENDBRANCH  14  15
ENDBRANCH  13  14
ENDBRANCH  12  13
ENDBRANCH   1  12
TORSDOF 16
ENDMDL
MODEL 7
REMARK VINA RESULT:    -3.112      4.598      9.373
REMARK INTER + INTRA:          -7.173
REMARK INTER:                  -5.885
REMARK INTRA:                  -1.288
REMARK UNBOUND:                -1.150
REMARK SMILES CCCCCCCCCCCCCCCCCC(=O)[O-]
REMARK SMILES IDX 10 1 11 2 12 3 13 4 14 5 15 6 16 7 17 8 18 9 19 10 20 11
REMARK SMILES IDX 9 12 8 13 7 14 6 15 5 16 4 17 3 18 2 19 1 20
REMARK H PARENT
REMARK Flexibility Score: inf
ROOT
ATOM      1  C   UNL     1       4.002  21.685  26.967  1.00  0.00     0.000 C 
ENDROOT
BRANCH   1   2
ATOM      2  C   UNL     1       5.385  22.330  27.122  1.00  0.00     0.000 C 
BRANCH   2   3
ATOM      3  C   UNL     1       5.625  23.385  26.031  1.00  0.00     0.000 C 
BRANCH   3   4
ATOM      4  C   UNL     1       4.318  23.977  25.480  1.00  0.00     0.000 C 
BRANCH   4   5
ATOM      5  C   UNL     1       4.356  24.174  23.955  1.00  0.00     0.000 C 
BRANCH   5   6
ATOM      6  C   UNL     1       2.979  23.987  23.295  1.00  0.00     0.000 C 
BRANCH   6   7
ATOM      7  C   UNL     1       1.829  23.792  24.307  1.00  0.00     0.006 C 
BRANCH   7   8
ATOM      8  C   UNL     1       1.124  25.112  24.643  1.00  0.00     0.053 C 
BRANCH   8   9
ATOM      9  C   UNL     1       0.410  25.006  25.953  1.00  0.00     0.041 C 
ATOM     10  O   UNL     1      -0.841  25.134  26.006  1.00  0.00    -0.550 OA
ATOM     11  O   UNL     1       1.121  24.713  27.110  1.00  0.00    -0.550 OA
ENDBRANCH   8   9
ENDBRANCH   7   8
ENDBRANCH   6   7
ENDBRANCH   5   6
ENDBRANCH   4   5
ENDBRANCH   3   4
ENDBRANCH   2   3
ENDBRANCH   1   2
BRANCH   1  12
ATOM     12  C   UNL     1       4.103  20.152  26.997  1.00  0.00     0.000 C 
BRANCH  12  13
ATOM     13  C   UNL     1       5.554  19.658  27.124  1.00  0.00    -0.000 C 
BRANCH  13  14
ATOM     14  C   UNL     1       5.812  18.366  26.334  1.00  0.00    -0.000 C 
BRANCH  14  15
ATOM     15  C   UNL     1       4.493  17.762  25.828  1.00  0.00    -0.000 C 
BRANCH  15  16
ATOM     16  C   UNL     1       4.217  16.365  26.409  1.00  0.00    -0.000 C 
BRANCH  16  17
ATOM     17  C   UNL     1       4.667  15.234  25.467  1.00  0.00    -0.000 C 
BRANCH  17  18
ATOM     18  C   UNL     1       4.947  15.734  24.040  1.00  0.00    -0.000 C 
BRANCH  18  19
ATOM     19  C   UNL     1       3.947  15.187  23.012  1.00  0.00    -0.003 C 
ATOM     20  C   UNL     1       2.730  16.099  22.889  1.00  0.00     0.004 C 
ENDBRANCH  18  19
ENDBRANCH  17  18
ENDBRANCH  16  17
ENDBRANCH  15  16
ENDBRANCH  14  15
ENDBRANCH  13  14
ENDBRANCH  12  13
ENDBRANCH   1  12
TORSDOF 16
ENDMDL
MODEL 8
REMARK VINA RESULT:    -2.965      4.998      9.722
REMARK INTER + INTRA:          -6.888
REMARK INTER:                  -5.841
REMARK INTRA:                  -1.047
REMARK UNBOUND:                -1.150
REMARK SMILES CCCCCCCCCCCCCCCCCC(=O)[O-]
REMARK SMILES IDX 10 1 11 2 12 3 13 4 14 5 15 6 16 7 17 8 18 9 19 10 20 11
REMARK SMILES IDX 9 12 8 13 7 14 6 15 5 16 4 17 3 18 2 19 1 20
REMARK H PARENT
REMARK Flexibility Score: inf
ROOT
ATOM      1  C   UNL     1       5.482  20.400  27.115  1.00  0.00     0.000 C 
ENDROOT
BRANCH   1   2
ATOM      2  C   UNL     1       6.843  20.991  26.726  1.00  0.00     0.000 C 
BRANCH   2   3
ATOM      3  C   UNL     1       6.722  22.490  26.411  1.00  0.00     0.000 C 
BRANCH   3   4
ATOM      4  C   UNL     1       5.277  23.004  26.513  1.00  0.00     0.000 C 
BRANCH   4   5
ATOM      5  C   UNL     1       4.967  24.103  25.485  1.00  0.00     0.000 C 
BRANCH   5   6
ATOM      6  C   UNL     1       3.471  24.192  25.139  1.00  0.00     0.000 C 
BRANCH   6   7
ATOM      7  C   UNL     1       2.770  22.818  25.066  1.00  0.00     0.006 C 
BRANCH   7   8
ATOM      8  C   UNL     1       1.386  22.908  24.411  1.00  0.00     0.053 C 
BRANCH   8   9
ATOM      9  C   UNL     1       1.498  22.762  22.927  1.00  0.00     0.041 C 
ATOM     10  O   UNL     1       1.841  23.743  22.217  1.00  0.00    -0.550 OA
ATOM     11  O   UNL     1       1.275  21.527  22.332  1.00  0.00    -0.550 OA
ENDBRANCH   8   9
ENDBRANCH   7   8
ENDBRANCH   6   7
ENDBRANCH   5   6
ENDBRANCH   4   5
ENDBRANCH   3   4
ENDBRANCH   2   3
ENDBRANCH   1   2
BRANCH   1  12
ATOM     12  C   UNL     1       5.485  18.871  26.973  1.00  0.00     0.000 C 
BRANCH  12  13
ATOM     13  C   UNL     1       6.470  18.379  25.901  1.00  0.00    -0.000 C 
BRANCH  13  14
ATOM     14  C   UNL     1       6.594  16.847  25.867  1.00  0.00    -0.000 C 
BRANCH  14  15
ATOM     15  C   UNL     1       5.427  16.187  26.616  1.00  0.00    -0.000 C 
BRANCH  15  16
ATOM     16  C   UNL     1       4.464  15.441  25.679  1.00  0.00    -0.000 C 
BRANCH  16  17
ATOM     17  C   UNL     1       5.202  14.605  24.618  1.00  0.00    -0.000 C 
BRANCH  17  18
ATOM     18  C   UNL     1       4.867  15.047  23.184  1.00  0.00    -0.000 C 
BRANCH  18  19
ATOM     19  C   UNL     1       3.358  15.048  22.900  1.00  0.00    -0.003 C 
ATOM     20  C   UNL     1       2.784  16.459  22.983  1.00  0.00     0.004 C 
ENDBRANCH  18  19
ENDBRANCH  17  18
ENDBRANCH  16  17
ENDBRANCH  15  16
ENDBRANCH  14  15
ENDBRANCH  13  14
ENDBRANCH  12  13
ENDBRANCH   1  12
TORSDOF 16
ENDMDL
MODEL 9
REMARK VINA RESULT:    -2.860      4.303      9.039
REMARK INTER + INTRA:          -6.686
REMARK INTER:                  -6.259
REMARK INTRA:                  -0.427
REMARK UNBOUND:                -1.150
REMARK SMILES CCCCCCCCCCCCCCCCCC(=O)[O-]
REMARK SMILES IDX 10 1 11 2 12 3 13 4 14 5 15 6 16 7 17 8 18 9 19 10 20 11
REMARK SMILES IDX 9 12 8 13 7 14 6 15 5 16 4 17 3 18 2 19 1 20
REMARK H PARENT
REMARK Flexibility Score: inf
ROOT
ATOM      1  C   UNL     1       3.738  21.194  26.828  1.00  0.00     0.000 C 
ENDROOT
BRANCH   1   2
ATOM      2  C   UNL     1       2.871  22.458  26.888  1.00  0.00     0.000 C 
BRANCH   2   3
ATOM      3  C   UNL     1       1.386  22.116  26.691  1.00  0.00     0.000 C 
BRANCH   3   4
ATOM      4  C   UNL     1       0.790  22.761  25.429  1.00  0.00     0.000 C 
BRANCH   4   5
ATOM      5  C   UNL     1       0.693  24.292  25.538  1.00  0.00     0.000 C 
BRANCH   5   6
ATOM      6  C   UNL     1       1.630  25.021  24.560  1.00  0.00     0.000 C 
BRANCH   6   7
ATOM      7  C   UNL     1       3.061  24.443  24.527  1.00  0.00     0.006 C 
BRANCH   7   8
ATOM      8  C   UNL     1       3.523  24.120  23.101  1.00  0.00     0.053 C 
BRANCH   8   9
ATOM      9  C   UNL     1       2.349  24.028  22.178  1.00  0.00     0.041 C 
ATOM     10  O   UNL     1       1.763  22.928  22.005  1.00  0.00    -0.550 OA
ATOM     11  O   UNL     1       1.869  25.170  21.549  1.00  0.00    -0.550 OA
ENDBRANCH   8   9
ENDBRANCH   7   8
ENDBRANCH   6   7
ENDBRANCH   5   6
ENDBRANCH   4   5
ENDBRANCH   3   4
ENDBRANCH   2   3
ENDBRANCH   1   2
BRANCH   1  12
ATOM     12  C   UNL     1       5.231  21.551  26.795  1.00  0.00     0.000 C 
BRANCH  12  13
ATOM     13  C   UNL     1       6.134  20.352  27.125  1.00  0.00    -0.000 C 
BRANCH  13  14
ATOM     14  C   UNL     1       5.380  19.014  27.089  1.00  0.00    -0.000 C 
BRANCH  14  15
ATOM     15  C   UNL     1       6.100  18.004  26.182  1.00  0.00    -0.000 C 
BRANCH  15  16
ATOM     16  C   UNL     1       5.274  16.731  25.934  1.00  0.00    -0.000 C 
BRANCH  16  17
ATOM     17  C   UNL     1       5.539  16.117  24.548  1.00  0.00    -0.000 C 
BRANCH  17  18
ATOM     18  C   UNL     1       4.531  15.012  24.192  1.00  0.00    -0.000 C 
BRANCH  18  19
ATOM     19  C   UNL     1       3.141  15.565  23.845  1.00  0.00    -0.003 C 
ATOM     20  C   UNL     1       2.897  15.534  22.339  1.00  0.00     0.004 C 
ENDBRANCH  18  19
ENDBRANCH  17  18
ENDBRANCH  16  17
ENDBRANCH  15  16
ENDBRANCH  14  15
ENDBRANCH  13  14
ENDBRANCH  12  13
ENDBRANCH   1  12
TORSDOF 16
ENDMDL
