MODEL 1
REMARK VINA RESULT:    -3.541      0.000      0.000
REMARK INTER + INTRA:          -6.396
REMARK INTER:                  -5.611
REMARK INTRA:                  -0.785
REMARK UNBOUND:                -0.785
REMARK SMILES CCCCCCCCCCCC(=O)[O-]
REMARK SMILES IDX 7 1 8 2 9 3 10 4 11 5 12 6 13 7 14 8 6 9 5 10 4 11 3 12 2 13
REMARK SMILES IDX 1 14
REMARK H PARENT
REMARK Flexibility Score: inf
ROOT
ATOM      1  C   UNL     1      -3.568 -50.686   0.375  1.00  0.00     0.000 C 
ENDROOT
BRANCH   1   2
ATOM      2  C   UNL     1      -2.153 -51.166   0.744  1.00  0.00     0.000 C 
BRANCH   2   3
ATOM      3  C   UNL     1      -1.813 -50.924   2.223  1.00  0.00     0.000 C 
BRANCH   3   4
ATOM      4  C   UNL     1      -2.316 -52.056   3.137  1.00  0.00     0.006 C 
BRANCH   4   5
ATOM      5  C   UNL     1      -3.531 -51.629   3.971  1.00  0.00     0.053 C 
BRANCH   5   6
ATOM      6  C   UNL     1      -3.224 -51.619   5.436  1.00  0.00     0.041 C 
ATOM      7  O   UNL     1      -2.030 -51.619   5.836  1.00  0.00    -0.550 OA
ATOM      8  O   UNL     1      -4.259 -51.640   6.363  1.00  0.00    -0.550 OA
ENDBRANCH   5   6
ENDBRANCH   4   5
ENDBRANCH   3   4
ENDBRANCH   2   3
ENDBRANCH   1   2
BRANCH   1   9
ATOM      9  C   UNL     1      -4.539 -51.851   0.126  1.00  0.00     0.000 C 
BRANCH   9  10
ATOM     10  C   UNL     1      -6.013 -51.410   0.173  1.00  0.00    -0.000 C 
BRANCH  10  11
ATOM     11  C   UNL     1      -6.673 -51.689   1.533  1.00  0.00    -0.000 C 
BRANCH  11  12
ATOM     12  C   UNL     1      -8.150 -51.261   1.570  1.00  0.00    -0.000 C 
BRANCH  12  13
ATOM     13  C   UNL     1      -8.617 -50.885   2.985  1.00  0.00    -0.003 C 
ATOM     14  C   UNL     1      -7.569 -51.186   4.056  1.00  0.00     0.004 C 
ENDBRANCH  12  13
ENDBRANCH  11  12
ENDBRANCH  10  11
ENDBRANCH   9  10
ENDBRANCH   1   9
TORSDOF 10
ENDMDL
MODEL 2
REMARK VINA RESULT:    -3.494      0.860      1.126
REMARK INTER + INTRA:          -6.322
REMARK INTER:                  -5.460
REMARK INTRA:                  -0.862
REMARK UNBOUND:                -0.785
REMARK SMILES CCCCCCCCCCCC(=O)[O-]
REMARK SMILES IDX 7 1 8 2 9 3 10 4 11 5 12 6 13 7 14 8 6 9 5 10 4 11 3 12 2 13
REMARK SMILES IDX 1 14
REMARK H PARENT
REMARK Flexibility Score: inf
ROOT
ATOM      1  C   UNL     1      -3.318 -50.651   0.650  1.00  0.00     0.000 C 
ENDROOT
BRANCH   1   2
ATOM      2  C   UNL     1      -2.213 -50.652   1.721  1.00  0.00     0.000 C 
BRANCH   2   3
ATOM      3  C   UNL     1      -1.915 -52.059   2.263  1.00  0.00     0.000 C 
BRANCH   3   4
ATOM      4  C   UNL     1      -1.700 -52.072   3.786  1.00  0.00     0.006 C 
BRANCH   4   5
ATOM      5  C   UNL     1      -2.965 -51.660   4.551  1.00  0.00     0.053 C 
BRANCH   5   6
ATOM      6  C   UNL     1      -2.684 -51.418   6.002  1.00  0.00     0.041 C 
ATOM      7  O   UNL     1      -1.500 -51.272   6.404  1.00  0.00    -0.550 OA
ATOM      8  O   UNL     1      -3.729 -51.383   6.916  1.00  0.00    -0.550 OA
ENDBRANCH   5   6
ENDBRANCH   4   5
ENDBRANCH   3   4
ENDBRANCH   2   3
ENDBRANCH   1   2
BRANCH   1   9
ATOM      9  C   UNL     1      -4.289 -51.832   0.804  1.00  0.00     0.000 C 
BRANCH   9  10
ATOM     10  C   UNL     1      -5.728 -51.468   0.396  1.00  0.00    -0.000 C 
BRANCH  10  11
ATOM     11  C   UNL     1      -6.759 -51.817   1.481  1.00  0.00    -0.000 C 
BRANCH  11  12
ATOM     12  C   UNL     1      -6.131 -51.910   2.882  1.00  0.00    -0.000 C 
BRANCH  12  13
ATOM     13  C   UNL     1      -7.188 -51.986   3.996  1.00  0.00    -0.003 C 
ATOM     14  C   UNL     1      -8.022 -50.710   4.109  1.00  0.00     0.004 C 
ENDBRANCH  12  13
ENDBRANCH  11  12
ENDBRANCH  10  11
ENDBRANCH   9  10
ENDBRANCH   1   9
TORSDOF 10
ENDMDL
MODEL 3
REMARK VINA RESULT:    -3.402      1.188      2.371
REMARK INTER + INTRA:          -6.175
REMARK INTER:                  -5.518
REMARK INTRA:                  -0.658
REMARK UNBOUND:                -0.785
REMARK SMILES CCCCCCCCCCCC(=O)[O-]
REMARK SMILES IDX 7 1 8 2 9 3 10 4 11 5 12 6 13 7 14 8 6 9 5 10 4 11 3 12 2 13
REMARK SMILES IDX 1 14
REMARK H PARENT
REMARK Flexibility Score: inf
ROOT
ATOM      1  C   UNL     1      -1.974 -50.666   2.004  1.00  0.00     0.000 C 
ENDROOT
BRANCH   1   2
ATOM      2  C   UNL     1      -2.291 -51.655   3.140  1.00  0.00     0.000 C 
BRANCH   2   3
ATOM      3  C   UNL     1      -3.794 -51.733   3.454  1.00  0.00     0.000 C 
BRANCH   3   4
ATOM      4  C   UNL     1      -4.078 -51.812   4.965  1.00  0.00     0.006 C 
BRANCH   4   5
ATOM      5  C   UNL     1      -2.812 -52.125   5.775  1.00  0.00     0.053 C 
BRANCH   5   6
ATOM      6  C   UNL     1      -2.592 -51.127   6.870  1.00  0.00     0.041 C 
ATOM      7  O   UNL     1      -1.434 -50.699   7.116  1.00  0.00    -0.550 OA
ATOM      8  O   UNL     1      -3.663 -50.692   7.639  1.00  0.00    -0.550 OA
ENDBRANCH   5   6
ENDBRANCH   4   5
ENDBRANCH   3   4
ENDBRANCH   2   3
ENDBRANCH   1   2
BRANCH   1   9
ATOM      9  C   UNL     1      -2.254 -51.258   0.614  1.00  0.00     0.000 C 
BRANCH   9  10
ATOM     10  C   UNL     1      -3.637 -50.854   0.070  1.00  0.00    -0.000 C 
BRANCH  10  11
ATOM     11  C   UNL     1      -4.562 -52.061  -0.156  1.00  0.00    -0.000 C 
BRANCH  11  12
ATOM     12  C   UNL     1      -6.051 -51.679  -0.112  1.00  0.00    -0.000 C 
BRANCH  12  13
ATOM     13  C   UNL     1      -6.653 -51.818   1.295  1.00  0.00    -0.003 C 
ATOM     14  C   UNL     1      -8.179 -51.732   1.298  1.00  0.00     0.004 C 
ENDBRANCH  12  13
ENDBRANCH  11  12
ENDBRANCH  10  11
ENDBRANCH   9  10
ENDBRANCH   1   9
TORSDOF 10
ENDMDL
MODEL 4
REMARK VINA RESULT:    -3.385      1.100      1.230
REMARK INTER + INTRA:          -6.149
REMARK INTER:                  -5.570
REMARK INTRA:                  -0.579
REMARK UNBOUND:                -0.785
REMARK SMILES CCCCCCCCCCCC(=O)[O-]
REMARK SMILES IDX 7 1 8 2 9 3 10 4 11 5 12 6 13 7 14 8 6 9 5 10 4 11 3 12 2 13
REMARK SMILES IDX 1 14
REMARK H PARENT
REMARK Flexibility Score: inf
ROOT
ATOM      1  C   UNL     1      -3.471 -50.564   0.480  1.00  0.00     0.000 C 
ENDROOT
BRANCH   1   2
ATOM      2  C   UNL     1      -2.207 -51.317   0.027  1.00  0.00     0.000 C 
BRANCH   2   3
ATOM      3  C   UNL     1      -1.372 -51.835   1.209  1.00  0.00     0.000 C 
BRANCH   3   4
ATOM      4  C   UNL     1      -1.878 -51.309   2.564  1.00  0.00     0.006 C 
BRANCH   4   5
ATOM      5  C   UNL     1      -1.198 -52.013   3.746  1.00  0.00     0.053 C 
BRANCH   5   6
ATOM      6  C   UNL     1      -1.900 -51.733   5.039  1.00  0.00     0.041 C 
ATOM      7  O   UNL     1      -1.254 -51.701   6.119  1.00  0.00    -0.550 OA
ATOM      8  O   UNL     1      -3.275 -51.535   5.055  1.00  0.00    -0.550 OA
ENDBRANCH   5   6
ENDBRANCH   4   5
ENDBRANCH   3   4
ENDBRANCH   2   3
ENDBRANCH   1   2
BRANCH   1   9
ATOM      9  C   UNL     1      -4.763 -51.229  -0.021  1.00  0.00     0.000 C 
BRANCH   9  10
ATOM     10  C   UNL     1      -5.592 -51.841   1.123  1.00  0.00    -0.000 C 
BRANCH  10  11
ATOM     11  C   UNL     1      -7.103 -51.629   0.940  1.00  0.00    -0.000 C 
BRANCH  11  12
ATOM     12  C   UNL     1      -7.906 -51.992   2.200  1.00  0.00    -0.000 C 
BRANCH  12  13
ATOM     13  C   UNL     1      -7.236 -51.489   3.490  1.00  0.00    -0.003 C 
ATOM     14  C   UNL     1      -8.175 -50.655   4.360  1.00  0.00     0.004 C 
ENDBRANCH  12  13
ENDBRANCH  11  12
ENDBRANCH  10  11
ENDBRANCH   9  10
ENDBRANCH   1   9
TORSDOF 10
ENDMDL
MODEL 5
REMARK VINA RESULT:    -3.250      1.853      4.739
REMARK INTER + INTRA:          -5.935
REMARK INTER:                  -5.193
REMARK INTRA:                  -0.742
REMARK UNBOUND:                -0.785
REMARK SMILES CCCCCCCCCCCC(=O)[O-]
REMARK SMILES IDX 7 1 8 2 9 3 10 4 11 5 12 6 13 7 14 8 6 9 5 10 4 11 3 12 2 13
REMARK SMILES IDX 1 14
REMARK H PARENT
REMARK Flexibility Score: inf
ROOT
ATOM      1  C   UNL     1      -3.538 -50.493   0.704  1.00  0.00     0.000 C 
ENDROOT
BRANCH   1   2
ATOM      2  C   UNL     1      -4.772 -51.282   0.231  1.00  0.00     0.000 C 
BRANCH   2   3
ATOM      3  C   UNL     1      -5.537 -51.936   1.392  1.00  0.00     0.000 C 
BRANCH   3   4
ATOM      4  C   UNL     1      -7.055 -51.696   1.307  1.00  0.00     0.006 C 
BRANCH   4   5
ATOM      5  C   UNL     1      -7.780 -52.125   2.589  1.00  0.00     0.053 C 
BRANCH   5   6
ATOM      6  C   UNL     1      -7.737 -51.056   3.637  1.00  0.00     0.041 C 
ATOM      7  O   UNL     1      -6.825 -51.055   4.506  1.00  0.00    -0.550 OA
ATOM      8  O   UNL     1      -8.721 -50.077   3.673  1.00  0.00    -0.550 OA
ENDBRANCH   5   6
ENDBRANCH   4   5
ENDBRANCH   3   4
ENDBRANCH   2   3
ENDBRANCH   1   2
BRANCH   1   9
ATOM      9  C   UNL     1      -2.334 -51.402   0.996  1.00  0.00     0.000 C 
BRANCH   9  10
ATOM     10  C   UNL     1      -1.609 -51.019   2.299  1.00  0.00    -0.000 C 
BRANCH  10  11
ATOM     11  C   UNL     1      -1.788 -52.067   3.409  1.00  0.00    -0.000 C 
BRANCH  11  12
ATOM     12  C   UNL     1      -3.157 -51.965   4.101  1.00  0.00    -0.000 C 
BRANCH  12  13
ATOM     13  C   UNL     1      -3.048 -51.460   5.549  1.00  0.00    -0.003 C 
ATOM     14  C   UNL     1      -1.651 -51.650   6.140  1.00  0.00     0.004 C 
ENDBRANCH  12  13
ENDBRANCH  11  12
ENDBRANCH  10  11
ENDBRANCH   9  10
ENDBRANCH   1   9
TORSDOF 10
ENDMDL
MODEL 6
REMARK VINA RESULT:    -3.204      2.538      5.236
REMARK INTER + INTRA:          -5.863
REMARK INTER:                  -5.213
REMARK INTRA:                  -0.650
REMARK UNBOUND:                -0.785
REMARK SMILES CCCCCCCCCCCC(=O)[O-]
REMARK SMILES IDX 7 1 8 2 9 3 10 4 11 5 12 6 13 7 14 8 6 9 5 10 4 11 3 12 2 13
REMARK SMILES IDX 1 14
REMARK H PARENT
REMARK Flexibility Score: inf
ROOT
ATOM      1  C   UNL     1      -1.375 -50.967   2.388  1.00  0.00     0.000 C 
ENDROOT
BRANCH   1   2
ATOM      2  C   UNL     1      -2.261 -51.639   1.324  1.00  0.00     0.000 C 
BRANCH   2   3
ATOM      3  C   UNL     1      -3.093 -50.627   0.521  1.00  0.00     0.000 C 
BRANCH   3   4
ATOM      4  C   UNL     1      -4.536 -51.106   0.282  1.00  0.00     0.006 C 
BRANCH   4   5
ATOM      5  C   UNL     1      -5.068 -51.944   1.452  1.00  0.00     0.053 C 
BRANCH   5   6
ATOM      6  C   UNL     1      -6.563 -51.913   1.525  1.00  0.00     0.041 C 
ATOM      7  O   UNL     1      -7.249 -51.843   0.471  1.00  0.00    -0.550 OA
ATOM      8  O   UNL     1      -7.200 -51.931   2.759  1.00  0.00    -0.550 OA
ENDBRANCH   5   6
ENDBRANCH   4   5
ENDBRANCH   3   4
ENDBRANCH   2   3
ENDBRANCH   1   2
BRANCH   1   9
ATOM      9  C   UNL     1      -1.447 -51.677   3.749  1.00  0.00     0.000 C 
BRANCH   9  10
ATOM     10  C   UNL     1      -2.893 -51.996   4.171  1.00  0.00    -0.000 C 
BRANCH  10  11
ATOM     11  C   UNL     1      -3.151 -51.717   5.660  1.00  0.00    -0.000 C 
BRANCH  11  12
ATOM     12  C   UNL     1      -1.857 -51.432   6.440  1.00  0.00    -0.000 C 
BRANCH  12  13
ATOM     13  C   UNL     1      -2.104 -51.259   7.947  1.00  0.00    -0.003 C 
ATOM     14  C   UNL     1      -3.587 -51.141   8.296  1.00  0.00     0.004 C 
ENDBRANCH  12  13
ENDBRANCH  11  12
ENDBRANCH  10  11
ENDBRANCH   9  10
ENDBRANCH   1   9
TORSDOF 10
ENDMDL
MODEL 7
REMARK VINA RESULT:    -3.123      3.419      6.027
REMARK INTER + INTRA:          -5.734
REMARK INTER:                  -5.331
REMARK INTRA:                  -0.403
REMARK UNBOUND:                -0.785
REMARK SMILES CCCCCCCCCCCC(=O)[O-]
REMARK SMILES IDX 7 1 8 2 9 3 10 4 11 5 12 6 13 7 14 8 6 9 5 10 4 11 3 12 2 13
REMARK SMILES IDX 1 14
REMARK H PARENT
REMARK Flexibility Score: inf
ROOT
ATOM      1  C   UNL     1      -2.100 -51.168   6.392  1.00  0.00     0.000 C 
ENDROOT
BRANCH   1   2
ATOM      2  C   UNL     1      -3.043 -51.916   7.351  1.00  0.00     0.000 C 
BRANCH   2   3
ATOM      3  C   UNL     1      -3.649 -50.995   8.421  1.00  0.00     0.000 C 
BRANCH   3   4
ATOM      4  C   UNL     1      -4.803 -51.663   9.190  1.00  0.00     0.006 C 
BRANCH   4   5
ATOM      5  C   UNL     1      -5.797 -50.636   9.749  1.00  0.00     0.053 C 
BRANCH   5   6
ATOM      6  C   UNL     1      -7.136 -50.741   9.088  1.00  0.00     0.041 C 
ATOM      7  O   UNL     1      -7.220 -51.000   7.858  1.00  0.00    -0.550 OA
ATOM      8  O   UNL     1      -8.294 -50.523   9.824  1.00  0.00    -0.550 OA
ENDBRANCH   5   6
ENDBRANCH   4   5
ENDBRANCH   3   4
ENDBRANCH   2   3
ENDBRANCH   1   2
BRANCH   1   9
ATOM      9  C   UNL     1      -1.253 -52.122   5.535  1.00  0.00     0.000 C 
BRANCH   9  10
ATOM     10  C   UNL     1      -1.362 -51.816   4.030  1.00  0.00    -0.000 C 
BRANCH  10  11
ATOM     11  C   UNL     1      -2.794 -51.461   3.598  1.00  0.00    -0.000 C 
BRANCH  11  12
ATOM     12  C   UNL     1      -3.090 -51.871   2.146  1.00  0.00    -0.000 C 
BRANCH  12  13
ATOM     13  C   UNL     1      -2.665 -50.795   1.133  1.00  0.00    -0.003 C 
ATOM     14  C   UNL     1      -1.918 -51.374  -0.068  1.00  0.00     0.004 C 
ENDBRANCH  12  13
ENDBRANCH  11  12
ENDBRANCH  10  11
ENDBRANCH   9  10
ENDBRANCH   1   9
TORSDOF 10
ENDMDL
MODEL 8
REMARK VINA RESULT:    -3.115      3.177      5.799
REMARK INTER + INTRA:          -5.721
REMARK INTER:                  -5.337
REMARK INTRA:                  -0.385
REMARK UNBOUND:                -0.785
REMARK SMILES CCCCCCCCCCCC(=O)[O-]
REMARK SMILES IDX 7 1 8 2 9 3 10 4 11 5 12 6 13 7 14 8 6 9 5 10 4 11 3 12 2 13
REMARK SMILES IDX 1 14
REMARK H PARENT
REMARK Flexibility Score: inf
ROOT
ATOM      1  C   UNL     1      -2.410 -51.534   4.324  1.00  0.00     0.000 C 
ENDROOT
BRANCH   1   2
ATOM      2  C   UNL     1      -1.186 -51.573   3.392  1.00  0.00     0.000 C 
BRANCH   2   3
ATOM      3  C   UNL     1      -1.571 -51.762   1.916  1.00  0.00     0.000 C 
BRANCH   3   4
ATOM      4  C   UNL     1      -2.342 -50.556   1.349  1.00  0.00     0.006 C 
BRANCH   4   5
ATOM      5  C   UNL     1      -3.143 -50.922   0.092  1.00  0.00     0.053 C 
BRANCH   5   6
ATOM      6  C   UNL     1      -4.589 -51.156   0.402  1.00  0.00     0.041 C 
ATOM      7  O   UNL     1      -5.472 -50.905  -0.460  1.00  0.00    -0.550 OA
ATOM      8  O   UNL     1      -4.965 -51.623   1.655  1.00  0.00    -0.550 OA
ENDBRANCH   5   6
ENDBRANCH   4   5
ENDBRANCH   3   4
ENDBRANCH   2   3
ENDBRANCH   1   2
BRANCH   1   9
ATOM      9  C   UNL     1      -2.112 -52.124   5.712  1.00  0.00     0.000 C 
BRANCH   9  10
ATOM     10  C   UNL     1      -1.674 -51.051   6.726  1.00  0.00    -0.000 C 
BRANCH  10  11
ATOM     11  C   UNL     1      -2.237 -51.300   8.134  1.00  0.00    -0.000 C 
BRANCH  11  12
ATOM     12  C   UNL     1      -3.769 -51.436   8.140  1.00  0.00    -0.000 C 
BRANCH  12  13
ATOM     13  C   UNL     1      -4.365 -51.315   9.552  1.00  0.00    -0.003 C 
ATOM     14  C   UNL     1      -5.642 -50.477   9.587  1.00  0.00     0.004 C 
ENDBRANCH  12  13
ENDBRANCH  11  12
ENDBRANCH  10  11
ENDBRANCH   9  10
ENDBRANCH   1   9
TORSDOF 10
ENDMDL
MODEL 9
REMARK VINA RESULT:    -3.029      2.750      5.371
REMARK INTER + INTRA:          -5.585
REMARK INTER:                  -5.201
REMARK INTRA:                  -0.384
REMARK UNBOUND:                -0.785
REMARK SMILES CCCCCCCCCCCC(=O)[O-]
REMARK SMILES IDX 7 1 8 2 9 3 10 4 11 5 12 6 13 7 14 8 6 9 5 10 4 11 3 12 2 13
REMARK SMILES IDX 1 14
REMARK H PARENT
REMARK Flexibility Score: inf
ROOT
ATOM      1  C   UNL     1      -3.227 -51.748   5.261  1.00  0.00     0.000 C 
ENDROOT
BRANCH   1   2
ATOM      2  C   UNL     1      -2.991 -51.227   6.690  1.00  0.00     0.000 C 
BRANCH   2   3
ATOM      3  C   UNL     1      -3.901 -51.907   7.725  1.00  0.00     0.000 C 
BRANCH   3   4
ATOM      4  C   UNL     1      -4.329 -50.950   8.852  1.00  0.00     0.006 C 
BRANCH   4   5
ATOM      5  C   UNL     1      -5.609 -51.422   9.555  1.00  0.00     0.053 C 
BRANCH   5   6
ATOM      6  C   UNL     1      -6.840 -50.992   8.816  1.00  0.00     0.041 C 
ATOM      7  O   UNL     1      -7.341 -49.856   9.024  1.00  0.00    -0.550 OA
ATOM      8  O   UNL     1      -7.450 -51.859   7.919  1.00  0.00    -0.550 OA
ENDBRANCH   5   6
ENDBRANCH   4   5
ENDBRANCH   3   4
ENDBRANCH   2   3
ENDBRANCH   1   2
BRANCH   1   9
ATOM      9  C   UNL     1      -1.942 -51.765   4.419  1.00  0.00     0.000 C 
BRANCH   9  10
ATOM     10  C   UNL     1      -2.214 -52.059   2.933  1.00  0.00    -0.000 C 
BRANCH  10  11
ATOM     11  C   UNL     1      -1.710 -50.943   2.004  1.00  0.00    -0.000 C 
BRANCH  11  12
ATOM     12  C   UNL     1      -2.784 -50.477   1.007  1.00  0.00    -0.000 C 
BRANCH  12  13
ATOM     13  C   UNL     1      -3.621 -51.643   0.456  1.00  0.00    -0.003 C 
ATOM     14  C   UNL     1      -5.107 -51.305   0.343  1.00  0.00     0.004 C 
ENDBRANCH  12  13
ENDBRANCH  11  12
ENDBRANCH  10  11
ENDBRANCH   9  10
ENDBRANCH   1   9
TORSDOF 10
ENDMDL
