MODEL 1
REMARK VINA RESULT:    -0.728      0.000      0.000
REMARK INTER + INTRA:          -4.733
REMARK INTER:                  -1.367
REMARK INTRA:                  -3.366
REMARK UNBOUND:                -3.366
REMARK SMILES CCCCCCCCC=CCCCCCCCC(=O)[O-]
REMARK SMILES IDX 10 1 9 2 11 3 12 4 13 5 14 6 15 7 16 8 17 9 18 10 19 11
REMARK SMILES IDX 20 12 8 13 7 14 6 15 5 16 4 17 3 18 2 19 1 20
REMARK H PARENT
REMARK Flexibility Score: inf
ROOT
ATOM      1  C   UNL     1      38.308   4.658  38.357  1.00  0.00    -0.031 C 
ATOM      2  C   UNL     1      37.553   5.715  38.686  1.00  0.00    -0.031 C 
ENDROOT
BRANCH   1   3
ATOM      3  C   UNL     1      39.540   4.799  37.504  1.00  0.00     0.027 C 
BRANCH   3   4
ATOM      4  C   UNL     1      40.799   4.221  38.175  1.00  0.00     0.004 C 
BRANCH   4   5
ATOM      5  C   UNL     1      40.511   3.119  39.212  1.00  0.00     0.000 C 
BRANCH   5   6
ATOM      6  C   UNL     1      41.125   3.425  40.589  1.00  0.00     0.000 C 
BRANCH   6   7
ATOM      7  C   UNL     1      41.912   4.744  40.604  1.00  0.00     0.000 C 
BRANCH   7   8
ATOM      8  C   UNL     1      41.350   5.755  41.621  1.00  0.00     0.006 C 
BRANCH   8   9
ATOM      9  C   UNL     1      40.369   6.742  40.975  1.00  0.00     0.053 C 
BRANCH   9  10
ATOM     10  C   UNL     1      41.059   7.664  40.018  1.00  0.00     0.041 C 
ATOM     11  O   UNL     1      40.638   7.780  38.836  1.00  0.00    -0.550 OA
ATOM     12  O   UNL     1      42.185   8.370  40.419  1.00  0.00    -0.550 OA
ENDBRANCH   9  10
ENDBRANCH   8   9
ENDBRANCH   7   8
ENDBRANCH   6   7
ENDBRANCH   5   6
ENDBRANCH   4   5
ENDBRANCH   3   4
ENDBRANCH   1   3
BRANCH   2  13
ATOM     13  C   UNL     1      36.330   5.546  39.546  1.00  0.00     0.027 C 
BRANCH  13  14
ATOM     14  C   UNL     1      36.606   5.984  40.992  1.00  0.00     0.004 C 
BRANCH  14  15
ATOM     15  C   UNL     1      36.582   4.807  41.981  1.00  0.00     0.000 C 
BRANCH  15  16
ATOM     16  C   UNL     1      37.958   4.131  42.125  1.00  0.00     0.000 C 
BRANCH  16  17
ATOM     17  C   UNL     1      37.885   2.597  42.013  1.00  0.00    -0.000 C 
BRANCH  17  18
ATOM     18  C   UNL     1      36.613   2.050  41.341  1.00  0.00    -0.000 C 
BRANCH  18  19
ATOM     19  C   UNL     1      36.887   1.406  39.974  1.00  0.00    -0.003 C 
ATOM     20  C   UNL     1      35.929   1.940  38.912  1.00  0.00     0.004 C 
ENDBRANCH  18  19
ENDBRANCH  17  18
ENDBRANCH  16  17
ENDBRANCH  15  16
ENDBRANCH  14  15
ENDBRANCH  13  14
ENDBRANCH   2  13
TORSDOF 15
ENDMDL
MODEL 2
REMARK VINA RESULT:    -0.666      3.141      5.297
REMARK INTER + INTRA:          -4.615
REMARK INTER:                  -1.445
REMARK INTRA:                  -3.170
REMARK UNBOUND:                -3.366
REMARK SMILES CCCCCCCCC=CCCCCCCCC(=O)[O-]
REMARK SMILES IDX 10 1 9 2 11 3 12 4 13 5 14 6 15 7 16 8 17 9 18 10 19 11
REMARK SMILES IDX 20 12 8 13 7 14 6 15 5 16 4 17 3 18 2 19 1 20
REMARK H PARENT
REMARK Flexibility Score: inf
ROOT
ATOM      1  C   UNL     1      36.820   6.149  38.404  1.00  0.00    -0.031 C 
ATOM      2  C   UNL     1      37.474   4.986  38.272  1.00  0.00    -0.031 C 
ENDROOT
BRANCH   1   3
ATOM      3  C   UNL     1      35.326   6.201  38.573  1.00  0.00     0.027 C 
BRANCH   3   4
ATOM      4  C   UNL     1      34.901   6.781  39.935  1.00  0.00     0.004 C 
BRANCH   4   5
ATOM      5  C   UNL     1      36.075   7.089  40.882  1.00  0.00     0.000 C 
BRANCH   5   6
ATOM      6  C   UNL     1      36.093   6.177  42.122  1.00  0.00     0.000 C 
BRANCH   6   7
ATOM      7  C   UNL     1      37.129   5.049  42.007  1.00  0.00     0.000 C 
BRANCH   7   8
ATOM      8  C   UNL     1      36.487   3.692  41.663  1.00  0.00     0.006 C 
BRANCH   8   9
ATOM      9  C   UNL     1      35.027   3.609  42.125  1.00  0.00     0.053 C 
BRANCH   9  10
ATOM     10  C   UNL     1      34.115   3.190  41.013  1.00  0.00     0.041 C 
ATOM     11  O   UNL     1      34.562   3.061  39.843  1.00  0.00    -0.550 OA
ATOM     12  O   UNL     1      32.767   2.974  41.262  1.00  0.00    -0.550 OA
ENDBRANCH   9  10
ENDBRANCH   8   9
ENDBRANCH   7   8
ENDBRANCH   6   7
ENDBRANCH   5   6
ENDBRANCH   4   5
ENDBRANCH   3   4
ENDBRANCH   1   3
BRANCH   2  13
ATOM     13  C   UNL     1      38.970   4.962  38.110  1.00  0.00     0.027 C 
BRANCH  13  14
ATOM     14  C   UNL     1      39.652   5.881  39.134  1.00  0.00     0.004 C 
BRANCH  14  15
ATOM     15  C   UNL     1      40.289   5.103  40.296  1.00  0.00     0.000 C 
BRANCH  15  16
ATOM     16  C   UNL     1      40.619   3.648  39.919  1.00  0.00     0.000 C 
BRANCH  16  17
ATOM     17  C   UNL     1      39.994   2.623  40.885  1.00  0.00    -0.000 C 
BRANCH  17  18
ATOM     18  C   UNL     1      39.703   1.242  40.272  1.00  0.00    -0.000 C 
BRANCH  18  19
ATOM     19  C   UNL     1      39.052   1.327  38.884  1.00  0.00    -0.003 C 
ATOM     20  C   UNL     1      37.529   1.317  38.988  1.00  0.00     0.004 C 
ENDBRANCH  18  19
ENDBRANCH  17  18
ENDBRANCH  16  17
ENDBRANCH  15  16
ENDBRANCH  14  15
ENDBRANCH  13  14
ENDBRANCH   2  13
TORSDOF 15
ENDMDL
MODEL 3
REMARK VINA RESULT:    -0.659      2.243      3.780
REMARK INTER + INTRA:          -4.603
REMARK INTER:                  -1.314
REMARK INTRA:                  -3.288
REMARK UNBOUND:                -3.366
REMARK SMILES CCCCCCCCC=CCCCCCCCC(=O)[O-]
REMARK SMILES IDX 10 1 9 2 11 3 12 4 13 5 14 6 15 7 16 8 17 9 18 10 19 11
REMARK SMILES IDX 20 12 8 13 7 14 6 15 5 16 4 17 3 18 2 19 1 20
REMARK H PARENT
REMARK Flexibility Score: inf
ROOT
ATOM      1  C   UNL     1      36.639   3.587  38.056  1.00  0.00    -0.031 C 
ATOM      2  C   UNL     1      37.522   2.781  38.663  1.00  0.00    -0.031 C 
ENDROOT
BRANCH   1   3
ATOM      3  C   UNL     1      37.069   4.849  37.358  1.00  0.00     0.027 C 
BRANCH   3   4
ATOM      4  C   UNL     1      36.490   6.117  38.011  1.00  0.00     0.004 C 
BRANCH   4   5
ATOM      5  C   UNL     1      37.535   7.210  38.302  1.00  0.00     0.000 C 
BRANCH   5   6
ATOM      6  C   UNL     1      38.367   6.915  39.563  1.00  0.00     0.000 C 
BRANCH   6   7
ATOM      7  C   UNL     1      39.841   6.624  39.242  1.00  0.00     0.000 C 
BRANCH   7   8
ATOM      8  C   UNL     1      40.255   5.191  39.624  1.00  0.00     0.006 C 
BRANCH   8   9
ATOM      9  C   UNL     1      40.843   4.421  38.434  1.00  0.00     0.053 C 
BRANCH   9  10
ATOM     10  C   UNL     1      41.805   3.363  38.876  1.00  0.00     0.041 C 
ATOM     11  O   UNL     1      43.042   3.519  38.699  1.00  0.00    -0.550 OA
ATOM     12  O   UNL     1      41.335   2.191  39.453  1.00  0.00    -0.550 OA
ENDBRANCH   9  10
ENDBRANCH   8   9
ENDBRANCH   7   8
ENDBRANCH   6   7
ENDBRANCH   5   6
ENDBRANCH   4   5
ENDBRANCH   3   4
ENDBRANCH   1   3
BRANCH   2  13
ATOM     13  C   UNL     1      37.065   1.521  39.347  1.00  0.00     0.027 C 
BRANCH  13  14
ATOM     14  C   UNL     1      37.364   1.571  40.853  1.00  0.00     0.004 C 
BRANCH  14  15
ATOM     15  C   UNL     1      38.418   2.630  41.212  1.00  0.00     0.000 C 
BRANCH  15  16
ATOM     16  C   UNL     1      37.855   3.734  42.125  1.00  0.00     0.000 C 
BRANCH  16  17
ATOM     17  C   UNL     1      36.316   3.784  42.125  1.00  0.00    -0.000 C 
BRANCH  17  18
ATOM     18  C   UNL     1      35.702   5.000  41.408  1.00  0.00    -0.000 C 
BRANCH  18  19
ATOM     19  C   UNL     1      34.357   4.684  40.737  1.00  0.00    -0.003 C 
ATOM     20  C   UNL     1      33.989   3.212  40.908  1.00  0.00     0.004 C 
ENDBRANCH  18  19
ENDBRANCH  17  18
ENDBRANCH  16  17
ENDBRANCH  15  16
ENDBRANCH  14  15
ENDBRANCH  13  14
ENDBRANCH   2  13
TORSDOF 15
ENDMDL
MODEL 4
REMARK VINA RESULT:    -0.584      3.084      5.066
REMARK INTER + INTRA:          -4.462
REMARK INTER:                  -1.298
REMARK INTRA:                  -3.164
REMARK UNBOUND:                -3.366
REMARK SMILES CCCCCCCCC=CCCCCCCCC(=O)[O-]
REMARK SMILES IDX 10 1 9 2 11 3 12 4 13 5 14 6 15 7 16 8 17 9 18 10 19 11
REMARK SMILES IDX 20 12 8 13 7 14 6 15 5 16 4 17 3 18 2 19 1 20
REMARK H PARENT
REMARK Flexibility Score: inf
ROOT
ATOM      1  C   UNL     1      39.955   4.626  38.124  1.00  0.00    -0.031 C 
ATOM      2  C   UNL     1      38.832   5.324  37.900  1.00  0.00    -0.031 C 
ENDROOT
BRANCH   1   3
ATOM      3  C   UNL     1      40.052   3.158  37.806  1.00  0.00     0.027 C 
BRANCH   3   4
ATOM      4  C   UNL     1      40.145   2.281  39.068  1.00  0.00     0.004 C 
BRANCH   4   5
ATOM      5  C   UNL     1      38.782   1.865  39.649  1.00  0.00     0.000 C 
BRANCH   5   6
ATOM      6  C   UNL     1      38.745   1.935  41.186  1.00  0.00     0.000 C 
BRANCH   6   7
ATOM      7  C   UNL     1      38.463   3.354  41.704  1.00  0.00     0.000 C 
BRANCH   7   8
ATOM      8  C   UNL     1      37.360   4.067  40.900  1.00  0.00     0.006 C 
BRANCH   8   9
ATOM      9  C   UNL     1      36.221   4.566  41.798  1.00  0.00     0.053 C 
BRANCH   9  10
ATOM     10  C   UNL     1      34.995   3.716  41.665  1.00  0.00     0.041 C 
ATOM     11  O   UNL     1      33.893   4.119  42.122  1.00  0.00    -0.550 OA
ATOM     12  O   UNL     1      35.076   2.466  41.067  1.00  0.00    -0.550 OA
ENDBRANCH   9  10
ENDBRANCH   8   9
ENDBRANCH   7   8
ENDBRANCH   6   7
ENDBRANCH   5   6
ENDBRANCH   4   5
ENDBRANCH   3   4
ENDBRANCH   1   3
BRANCH   2  13
ATOM     13  C   UNL     1      38.765   6.792  38.222  1.00  0.00     0.027 C 
BRANCH  13  14
ATOM     14  C   UNL     1      39.817   7.177  39.272  1.00  0.00     0.004 C 
BRANCH  14  15
ATOM     15  C   UNL     1      39.234   7.258  40.692  1.00  0.00     0.000 C 
BRANCH  15  16
ATOM     16  C   UNL     1      40.159   6.622  41.745  1.00  0.00     0.000 C 
BRANCH  16  17
ATOM     17  C   UNL     1      41.512   6.173  41.162  1.00  0.00    -0.000 C 
BRANCH  17  18
ATOM     18  C   UNL     1      41.916   4.724  41.488  1.00  0.00    -0.000 C 
BRANCH  18  19
ATOM     19  C   UNL     1      42.841   4.107  40.428  1.00  0.00    -0.003 C 
ATOM     20  C   UNL     1      43.292   5.155  39.414  1.00  0.00     0.004 C 
ENDBRANCH  18  19
ENDBRANCH  17  18
ENDBRANCH  16  17
ENDBRANCH  15  16
ENDBRANCH  14  15
ENDBRANCH  13  14
ENDBRANCH   2  13
TORSDOF 15
ENDMDL
MODEL 5
REMARK VINA RESULT:    -0.577      1.541      2.128
REMARK INTER + INTRA:          -4.449
REMARK INTER:                  -1.255
REMARK INTRA:                  -3.194
REMARK UNBOUND:                -3.366
REMARK SMILES CCCCCCCCC=CCCCCCCCC(=O)[O-]
REMARK SMILES IDX 10 1 9 2 11 3 12 4 13 5 14 6 15 7 16 8 17 9 18 10 19 11
REMARK SMILES IDX 20 12 8 13 7 14 6 15 5 16 4 17 3 18 2 19 1 20
REMARK H PARENT
REMARK Flexibility Score: inf
ROOT
ATOM      1  C   UNL     1      36.615   4.802  38.439  1.00  0.00    -0.031 C 
ATOM      2  C   UNL     1      36.167   6.064  38.501  1.00  0.00    -0.031 C 
ENDROOT
BRANCH   1   3
ATOM      3  C   UNL     1      37.521   4.338  37.331  1.00  0.00     0.027 C 
BRANCH   3   4
ATOM      4  C   UNL     1      37.831   2.832  37.406  1.00  0.00     0.004 C 
BRANCH   4   5
ATOM      5  C   UNL     1      38.322   2.358  38.786  1.00  0.00     0.000 C 
BRANCH   5   6
ATOM      6  C   UNL     1      39.748   2.840  39.107  1.00  0.00     0.000 C 
BRANCH   6   7
ATOM      7  C   UNL     1      39.925   3.210  40.588  1.00  0.00     0.000 C 
BRANCH   7   8
ATOM      8  C   UNL     1      40.553   4.603  40.777  1.00  0.00     0.006 C 
BRANCH   8   9
ATOM      9  C   UNL     1      39.661   5.720  40.222  1.00  0.00     0.053 C 
BRANCH   9  10
ATOM     10  C   UNL     1      40.327   6.458  39.101  1.00  0.00     0.041 C 
ATOM     11  O   UNL     1      41.567   6.339  38.914  1.00  0.00    -0.550 OA
ATOM     12  O   UNL     1      39.586   7.302  38.286  1.00  0.00    -0.550 OA
ENDBRANCH   9  10
ENDBRANCH   8   9
ENDBRANCH   7   8
ENDBRANCH   6   7
ENDBRANCH   5   6
ENDBRANCH   4   5
ENDBRANCH   3   4
ENDBRANCH   1   3
BRANCH   2  13
ATOM     13  C   UNL     1      35.267   6.503  39.624  1.00  0.00     0.027 C 
BRANCH  13  14
ATOM     14  C   UNL     1      35.990   7.479  40.563  1.00  0.00     0.004 C 
BRANCH  14  15
ATOM     15  C   UNL     1      36.549   6.789  41.817  1.00  0.00     0.000 C 
BRANCH  15  16
ATOM     16  C   UNL     1      35.837   5.460  42.125  1.00  0.00     0.000 C 
BRANCH  16  17
ATOM     17  C   UNL     1      36.795   4.254  42.125  1.00  0.00    -0.000 C 
BRANCH  17  18
ATOM     18  C   UNL     1      36.119   2.883  41.938  1.00  0.00    -0.000 C 
BRANCH  18  19
ATOM     19  C   UNL     1      34.819   2.962  41.123  1.00  0.00    -0.003 C 
ATOM     20  C   UNL     1      34.828   1.956  39.975  1.00  0.00     0.004 C 
ENDBRANCH  18  19
ENDBRANCH  17  18
ENDBRANCH  16  17
ENDBRANCH  15  16
ENDBRANCH  14  15
ENDBRANCH  13  14
ENDBRANCH   2  13
TORSDOF 15
ENDMDL
MODEL 6
REMARK VINA RESULT:    -0.576      2.405      3.973
REMARK INTER + INTRA:          -4.447
REMARK INTER:                  -1.297
REMARK INTRA:                  -3.150
REMARK UNBOUND:                -3.366
REMARK SMILES CCCCCCCCC=CCCCCCCCC(=O)[O-]
REMARK SMILES IDX 10 1 9 2 11 3 12 4 13 5 14 6 15 7 16 8 17 9 18 10 19 11
REMARK SMILES IDX 20 12 8 13 7 14 6 15 5 16 4 17 3 18 2 19 1 20
REMARK H PARENT
REMARK Flexibility Score: inf
ROOT
ATOM      1  C   UNL     1      36.263   6.277  38.146  1.00  0.00    -0.031 C 
ATOM      2  C   UNL     1      35.833   5.014  38.274  1.00  0.00    -0.031 C 
ENDROOT
BRANCH   1   3
ATOM      3  C   UNL     1      37.693   6.594  37.798  1.00  0.00     0.027 C 
BRANCH   3   4
ATOM      4  C   UNL     1      38.616   6.613  39.030  1.00  0.00     0.004 C 
BRANCH   4   5
ATOM      5  C   UNL     1      39.743   5.565  38.989  1.00  0.00     0.000 C 
BRANCH   5   6
ATOM      6  C   UNL     1      39.596   4.581  37.814  1.00  0.00     0.000 C 
BRANCH   6   7
ATOM      7  C   UNL     1      39.272   3.153  38.280  1.00  0.00     0.000 C 
BRANCH   7   8
ATOM      8  C   UNL     1      38.930   3.084  39.779  1.00  0.00     0.006 C 
BRANCH   8   9
ATOM      9  C   UNL     1      39.561   1.864  40.462  1.00  0.00     0.053 C 
BRANCH   9  10
ATOM     10  C   UNL     1      41.042   2.021  40.620  1.00  0.00     0.041 C 
ATOM     11  O   UNL     1      41.811   1.054  40.373  1.00  0.00    -0.550 OA
ATOM     12  O   UNL     1      41.571   3.222  41.073  1.00  0.00    -0.550 OA
ENDBRANCH   9  10
ENDBRANCH   8   9
ENDBRANCH   7   8
ENDBRANCH   6   7
ENDBRANCH   5   6
ENDBRANCH   4   5
ENDBRANCH   3   4
ENDBRANCH   1   3
BRANCH   2  13
ATOM     13  C   UNL     1      34.396   4.725  38.617  1.00  0.00     0.027 C 
BRANCH  13  14
ATOM     14  C   UNL     1      34.165   3.218  38.803  1.00  0.00     0.004 C 
BRANCH  14  15
ATOM     15  C   UNL     1      35.478   2.421  38.865  1.00  0.00     0.000 C 
BRANCH  15  16
ATOM     16  C   UNL     1      35.513   1.435  40.046  1.00  0.00     0.000 C 
BRANCH  16  17
ATOM     17  C   UNL     1      34.997   2.055  41.358  1.00  0.00    -0.000 C 
BRANCH  17  18
ATOM     18  C   UNL     1      36.023   2.909  42.125  1.00  0.00    -0.000 C 
BRANCH  18  19
ATOM     19  C   UNL     1      35.720   4.414  42.058  1.00  0.00    -0.003 C 
ATOM     20  C   UNL     1      37.007   5.232  41.997  1.00  0.00     0.004 C 
ENDBRANCH  18  19
ENDBRANCH  17  18
ENDBRANCH  16  17
ENDBRANCH  15  16
ENDBRANCH  14  15
ENDBRANCH  13  14
ENDBRANCH   2  13
TORSDOF 15
ENDMDL
MODEL 7
REMARK VINA RESULT:    -0.546      3.369      5.817
REMARK INTER + INTRA:          -4.391
REMARK INTER:                  -1.069
REMARK INTRA:                  -3.322
REMARK UNBOUND:                -3.366
REMARK SMILES CCCCCCCCC=CCCCCCCCC(=O)[O-]
REMARK SMILES IDX 10 1 9 2 11 3 12 4 13 5 14 6 15 7 16 8 17 9 18 10 19 11
REMARK SMILES IDX 20 12 8 13 7 14 6 15 5 16 4 17 3 18 2 19 1 20
REMARK H PARENT
REMARK Flexibility Score: inf
ROOT
ATOM      1  C   UNL     1      36.410   5.391  38.526  1.00  0.00    -0.031 C 
ATOM      2  C   UNL     1      35.777   5.072  39.664  1.00  0.00    -0.031 C 
ENDROOT
BRANCH   1   3
ATOM      3  C   UNL     1      36.321   4.522  37.300  1.00  0.00     0.027 C 
BRANCH   3   4
ATOM      4  C   UNL     1      37.296   3.331  37.343  1.00  0.00     0.004 C 
BRANCH   4   5
ATOM      5  C   UNL     1      36.608   1.954  37.370  1.00  0.00     0.000 C 
BRANCH   5   6
ATOM      6  C   UNL     1      36.307   1.468  38.799  1.00  0.00     0.000 C 
BRANCH   6   7
ATOM      7  C   UNL     1      34.866   0.961  38.957  1.00  0.00     0.000 C 
BRANCH   7   8
ATOM      8  C   UNL     1      33.914   2.045  39.494  1.00  0.00     0.006 C 
BRANCH   8   9
ATOM      9  C   UNL     1      32.678   2.224  38.603  1.00  0.00     0.053 C 
BRANCH   9  10
ATOM     10  C   UNL     1      32.892   3.277  37.560  1.00  0.00     0.041 C 
ATOM     11  O   UNL     1      33.255   2.952  36.399  1.00  0.00    -0.550 OA
ATOM     12  O   UNL     1      32.724   4.617  37.879  1.00  0.00    -0.550 OA
ENDBRANCH   9  10
ENDBRANCH   8   9
ENDBRANCH   7   8
ENDBRANCH   6   7
ENDBRANCH   5   6
ENDBRANCH   4   5
ENDBRANCH   3   4
ENDBRANCH   1   3
BRANCH   2  13
ATOM     13  C   UNL     1      35.878   5.962  40.873  1.00  0.00     0.027 C 
BRANCH  13  14
ATOM     14  C   UNL     1      36.246   5.154  42.125  1.00  0.00     0.004 C 
BRANCH  14  15
ATOM     15  C   UNL     1      36.413   3.654  41.834  1.00  0.00     0.000 C 
BRANCH  15  16
ATOM     16  C   UNL     1      37.848   3.160  42.090  1.00  0.00     0.000 C 
BRANCH  16  17
ATOM     17  C   UNL     1      38.740   3.236  40.837  1.00  0.00    -0.000 C 
BRANCH  17  18
ATOM     18  C   UNL     1      39.939   4.195  40.946  1.00  0.00    -0.000 C 
BRANCH  18  19
ATOM     19  C   UNL     1      39.592   5.636  40.543  1.00  0.00    -0.003 C 
ATOM     20  C   UNL     1      39.955   5.902  39.085  1.00  0.00     0.004 C 
ENDBRANCH  18  19
ENDBRANCH  17  18
ENDBRANCH  16  17
ENDBRANCH  15  16
ENDBRANCH  14  15
ENDBRANCH  13  14
ENDBRANCH   2  13
TORSDOF 15
ENDMDL
MODEL 8
REMARK VINA RESULT:    -0.525      2.108      4.110
REMARK INTER + INTRA:          -4.351
REMARK INTER:                  -1.067
REMARK INTRA:                  -3.285
REMARK UNBOUND:                -3.366
REMARK SMILES CCCCCCCCC=CCCCCCCCC(=O)[O-]
REMARK SMILES IDX 10 1 9 2 11 3 12 4 13 5 14 6 15 7 16 8 17 9 18 10 19 11
REMARK SMILES IDX 20 12 8 13 7 14 6 15 5 16 4 17 3 18 2 19 1 20
REMARK H PARENT
REMARK Flexibility Score: inf
ROOT
ATOM      1  C   UNL     1      37.617   6.452  37.164  1.00  0.00    -0.031 C 
ATOM      2  C   UNL     1      37.854   5.782  38.301  1.00  0.00    -0.031 C 
ENDROOT
BRANCH   1   3
ATOM      3  C   UNL     1      36.492   7.444  37.050  1.00  0.00     0.027 C 
BRANCH   3   4
ATOM      4  C   UNL     1      35.133   6.854  37.469  1.00  0.00     0.004 C 
BRANCH   4   5
ATOM      5  C   UNL     1      34.508   7.526  38.705  1.00  0.00     0.000 C 
BRANCH   5   6
ATOM      6  C   UNL     1      34.642   6.671  39.977  1.00  0.00     0.000 C 
BRANCH   6   7
ATOM      7  C   UNL     1      35.652   7.256  40.976  1.00  0.00     0.000 C 
BRANCH   7   8
ATOM      8  C   UNL     1      36.148   8.653  40.563  1.00  0.00     0.006 C 
BRANCH   8   9
ATOM      9  C   UNL     1      37.650   8.833  40.819  1.00  0.00     0.053 C 
BRANCH   9  10
ATOM     10  C   UNL     1      38.371   9.303  39.594  1.00  0.00     0.041 C 
ATOM     11  O   UNL     1      37.852  10.177  38.850  1.00  0.00    -0.550 OA
ATOM     12  O   UNL     1      39.599   8.752  39.254  1.00  0.00    -0.550 OA
ENDBRANCH   9  10
ENDBRANCH   8   9
ENDBRANCH   7   8
ENDBRANCH   6   7
ENDBRANCH   5   6
ENDBRANCH   4   5
ENDBRANCH   3   4
ENDBRANCH   1   3
BRANCH   2  13
ATOM     13  C   UNL     1      38.990   4.799  38.389  1.00  0.00     0.027 C 
BRANCH  13  14
ATOM     14  C   UNL     1      39.249   4.383  39.844  1.00  0.00     0.004 C 
BRANCH  14  15
ATOM     15  C   UNL     1      39.009   5.529  40.840  1.00  0.00     0.000 C 
BRANCH  15  16
ATOM     16  C   UNL     1      38.307   5.055  42.125  1.00  0.00     0.000 C 
BRANCH  16  17
ATOM     17  C   UNL     1      37.567   3.717  41.944  1.00  0.00    -0.000 C 
BRANCH  17  18
ATOM     18  C   UNL     1      36.040   3.786  42.125  1.00  0.00    -0.000 C 
BRANCH  18  19
ATOM     19  C   UNL     1      35.280   2.869  41.155  1.00  0.00    -0.003 C 
ATOM     20  C   UNL     1      35.723   3.106  39.713  1.00  0.00     0.004 C 
ENDBRANCH  18  19
ENDBRANCH  17  18
ENDBRANCH  16  17
ENDBRANCH  15  16
ENDBRANCH  14  15
ENDBRANCH  13  14
ENDBRANCH   2  13
TORSDOF 15
ENDMDL
