MODEL 1
REMARK VINA RESULT:    -5.229      0.000      0.000
REMARK INTER + INTRA:          -6.179
REMARK INTER:                  -5.994
REMARK INTRA:                  -0.185
REMARK UNBOUND:                -0.185
REMARK SMILES O=C([O-])C=Cc1ccc(O)cc1
REMARK SMILES IDX 6 1 7 2 12 3 8 4 11 5 9 6 5 7 4 8 2 9 1 10 3 11 10 12
REMARK H PARENT 10 13
REMARK Flexibility Score: inf
ROOT
ATOM      1  C   UNL     1     -13.540  33.374  -3.290  1.00  0.00    -0.025 A 
ATOM      2  C   UNL     1     -14.368  33.033  -4.369  1.00  0.00     0.012 A 
ATOM      3  C   UNL     1     -12.489  34.286  -3.492  1.00  0.00     0.012 A 
ATOM      4  C   UNL     1     -14.119  33.552  -5.643  1.00  0.00     0.047 A 
ATOM      5  C   UNL     1     -12.240  34.804  -4.767  1.00  0.00     0.047 A 
ATOM      6  C   UNL     1     -13.051  34.437  -5.845  1.00  0.00     0.115 A 
ENDROOT
BRANCH   1   7
ATOM      7  C   UNL     1     -13.855  32.855  -1.942  1.00  0.00     0.010 C 
ATOM      8  C   UNL     1     -14.447  33.551  -0.959  1.00  0.00     0.025 C 
BRANCH   8   9
ATOM      9  C   UNL     1     -14.727  35.000  -0.976  1.00  0.00     0.064 C 
ATOM     10  O   UNL     1     -14.027  35.814  -0.318  1.00  0.00    -0.545 OA
ATOM     11  O   UNL     1     -15.829  35.468  -1.679  1.00  0.00    -0.545 OA
ENDBRANCH   8   9
ENDBRANCH   1   7
BRANCH   6  12
ATOM     12  O   UNL     1     -12.792  34.959  -7.111  1.00  0.00    -0.508 OA
ATOM     13  H   UNL     1     -11.862  34.938  -7.512  1.00  0.00     0.293 HD
ENDBRANCH   6  12
TORSDOF 3
ENDMDL
MODEL 2
REMARK VINA RESULT:    -5.162      1.395      4.685
REMARK INTER + INTRA:          -6.101
REMARK INTER:                  -6.013
REMARK INTRA:                  -0.088
REMARK UNBOUND:                -0.185
REMARK SMILES O=C([O-])C=Cc1ccc(O)cc1
REMARK SMILES IDX 6 1 7 2 12 3 8 4 11 5 9 6 5 7 4 8 2 9 1 10 3 11 10 12
REMARK H PARENT 10 13
REMARK Flexibility Score: inf
ROOT
ATOM      1  C   UNL     1     -14.328  33.375  -3.120  1.00  0.00    -0.025 A 
ATOM      2  C   UNL     1     -13.641  32.684  -2.111  1.00  0.00     0.012 A 
ATOM      3  C   UNL     1     -15.121  34.484  -2.777  1.00  0.00     0.012 A 
ATOM      4  C   UNL     1     -13.787  33.061  -0.773  1.00  0.00     0.047 A 
ATOM      5  C   UNL     1     -15.266  34.860  -1.437  1.00  0.00     0.047 A 
ATOM      6  C   UNL     1     -14.602  34.149  -0.433  1.00  0.00     0.115 A 
ENDROOT
BRANCH   1   7
ATOM      7  C   UNL     1     -14.118  32.993  -4.532  1.00  0.00     0.010 C 
ATOM      8  C   UNL     1     -13.330  33.639  -5.405  1.00  0.00     0.025 C 
BRANCH   8   9
ATOM      9  C   UNL     1     -12.674  34.942  -5.174  1.00  0.00     0.064 C 
ATOM     10  O   UNL     1     -12.889  35.929  -5.925  1.00  0.00    -0.545 OA
ATOM     11  O   UNL     1     -11.749  35.061  -4.146  1.00  0.00    -0.545 OA
ENDBRANCH   8   9
ENDBRANCH   1   7
BRANCH   6  12
ATOM     12  O   UNL     1     -14.756  34.533   0.898  1.00  0.00    -0.508 OA
ATOM     13  H   UNL     1     -15.650  34.840   1.261  1.00  0.00     0.293 HD
ENDBRANCH   6  12
TORSDOF 3
ENDMDL
MODEL 3
REMARK VINA RESULT:    -5.013      1.655      4.771
REMARK INTER + INTRA:          -5.931
REMARK INTER:                  -5.664
REMARK INTRA:                  -0.267
REMARK UNBOUND:                -0.185
REMARK SMILES O=C([O-])C=Cc1ccc(O)cc1
REMARK SMILES IDX 6 1 7 2 12 3 8 4 11 5 9 6 5 7 4 8 2 9 1 10 3 11 10 12
REMARK H PARENT 10 13
REMARK Flexibility Score: inf
ROOT
ATOM      1  C   UNL     1     -12.852  34.182  -2.783  1.00  0.00    -0.025 A 
ATOM      2  C   UNL     1     -13.383  35.396  -2.324  1.00  0.00     0.012 A 
ATOM      3  C   UNL     1     -13.099  33.005  -2.056  1.00  0.00     0.012 A 
ATOM      4  C   UNL     1     -14.104  35.444  -1.128  1.00  0.00     0.047 A 
ATOM      5  C   UNL     1     -13.822  33.055  -0.859  1.00  0.00     0.047 A 
ATOM      6  C   UNL     1     -14.323  34.273  -0.390  1.00  0.00     0.115 A 
ENDROOT
BRANCH   1   7
ATOM      7  C   UNL     1     -12.139  34.146  -4.077  1.00  0.00     0.010 C 
ATOM      8  C   UNL     1     -12.709  33.950  -5.275  1.00  0.00     0.025 C 
BRANCH   8   9
ATOM      9  C   UNL     1     -14.113  33.557  -5.508  1.00  0.00     0.064 C 
ATOM     10  O   UNL     1     -14.971  34.386  -5.913  1.00  0.00    -0.545 OA
ATOM     11  O   UNL     1     -14.512  32.261  -5.209  1.00  0.00    -0.545 OA
ENDBRANCH   8   9
ENDBRANCH   1   7
BRANCH   6  12
ATOM     12  O   UNL     1     -15.039  34.309   0.804  1.00  0.00    -0.508 OA
ATOM     13  H   UNL     1     -14.598  34.567   1.679  1.00  0.00     0.293 HD
ENDBRANCH   6  12
TORSDOF 3
ENDMDL
MODEL 4
REMARK VINA RESULT:    -4.969      4.361      7.133
REMARK INTER + INTRA:          -5.880
REMARK INTER:                  -5.648
REMARK INTRA:                  -0.232
REMARK UNBOUND:                -0.185
REMARK SMILES O=C([O-])C=Cc1ccc(O)cc1
REMARK SMILES IDX 6 1 7 2 12 3 8 4 11 5 9 6 5 7 4 8 2 9 1 10 3 11 10 12
REMARK H PARENT 10 13
REMARK Flexibility Score: inf
ROOT
ATOM      1  C   UNL     1     -18.343  37.660  -1.633  1.00  0.00    -0.025 A 
ATOM      2  C   UNL     1     -19.259  36.735  -1.110  1.00  0.00     0.012 A 
ATOM      3  C   UNL     1     -17.615  38.480  -0.753  1.00  0.00     0.012 A 
ATOM      4  C   UNL     1     -19.484  36.666   0.268  1.00  0.00     0.047 A 
ATOM      5  C   UNL     1     -17.841  38.410   0.626  1.00  0.00     0.047 A 
ATOM      6  C   UNL     1     -18.777  37.507   1.139  1.00  0.00     0.115 A 
ENDROOT
BRANCH   1   7
ATOM      7  C   UNL     1     -18.082  37.677  -3.087  1.00  0.00     0.010 C 
ATOM      8  C   UNL     1     -17.049  37.080  -3.701  1.00  0.00     0.025 C 
BRANCH   8   9
ATOM      9  C   UNL     1     -15.893  36.453  -3.029  1.00  0.00     0.064 C 
ATOM     10  O   UNL     1     -15.910  35.243  -2.682  1.00  0.00    -0.545 OA
ATOM     11  O   UNL     1     -14.790  37.234  -2.713  1.00  0.00    -0.545 OA
ENDBRANCH   8   9
ENDBRANCH   1   7
BRANCH   6  12
ATOM     12  O   UNL     1     -18.994  37.448   2.514  1.00  0.00    -0.508 OA
ATOM     13  H   UNL     1     -19.645  38.073   2.975  1.00  0.00     0.293 HD
ENDBRANCH   6  12
TORSDOF 3
ENDMDL
MODEL 5
REMARK VINA RESULT:    -4.800      5.664      6.247
REMARK INTER + INTRA:          -5.686
REMARK INTER:                  -5.405
REMARK INTRA:                  -0.281
REMARK UNBOUND:                -0.185
REMARK SMILES O=C([O-])C=Cc1ccc(O)cc1
REMARK SMILES IDX 6 1 7 2 12 3 8 4 11 5 9 6 5 7 4 8 2 9 1 10 3 11 10 12
REMARK H PARENT 10 13
REMARK Flexibility Score: inf
ROOT
ATOM      1  C   UNL     1     -18.246  38.049  -0.252  1.00  0.00    -0.025 A 
ATOM      2  C   UNL     1     -18.886  37.125  -1.092  1.00  0.00     0.012 A 
ATOM      3  C   UNL     1     -17.422  39.037  -0.818  1.00  0.00     0.012 A 
ATOM      4  C   UNL     1     -18.665  37.154  -2.472  1.00  0.00     0.047 A 
ATOM      5  C   UNL     1     -17.201  39.064  -2.199  1.00  0.00     0.047 A 
ATOM      6  C   UNL     1     -17.819  38.123  -3.029  1.00  0.00     0.115 A 
ENDROOT
BRANCH   1   7
ATOM      7  C   UNL     1     -18.536  38.032   1.197  1.00  0.00     0.010 C 
ATOM      8  C   UNL     1     -17.847  37.346   2.121  1.00  0.00     0.025 C 
BRANCH   8   9
ATOM      9  C   UNL     1     -16.794  36.348   1.847  1.00  0.00     0.064 C 
ATOM     10  O   UNL     1     -17.039  35.113   1.855  1.00  0.00    -0.545 OA
ATOM     11  O   UNL     1     -15.490  36.779   1.643  1.00  0.00    -0.545 OA
ENDBRANCH   8   9
ENDBRANCH   1   7
BRANCH   6  12
ATOM     12  O   UNL     1     -17.589  38.160  -4.402  1.00  0.00    -0.508 OA
ATOM     13  H   UNL     1     -17.118  37.403  -4.882  1.00  0.00     0.293 HD
ENDBRANCH   6  12
TORSDOF 3
ENDMDL
MODEL 6
REMARK VINA RESULT:    -4.759      5.910      7.558
REMARK INTER + INTRA:          -5.640
REMARK INTER:                  -5.345
REMARK INTRA:                  -0.294
REMARK UNBOUND:                -0.185
REMARK SMILES O=C([O-])C=Cc1ccc(O)cc1
REMARK SMILES IDX 6 1 7 2 12 3 8 4 11 5 9 6 5 7 4 8 2 9 1 10 3 11 10 12
REMARK H PARENT 10 13
REMARK Flexibility Score: inf
ROOT
ATOM      1  C   UNL     1     -14.895  38.109   2.563  1.00  0.00    -0.025 A 
ATOM      2  C   UNL     1     -14.240  38.727   1.487  1.00  0.00     0.012 A 
ATOM      3  C   UNL     1     -14.209  37.940   3.779  1.00  0.00     0.012 A 
ATOM      4  C   UNL     1     -12.905  39.121   1.605  1.00  0.00     0.047 A 
ATOM      5  C   UNL     1     -12.873  38.336   3.895  1.00  0.00     0.047 A 
ATOM      6  C   UNL     1     -12.216  38.923   2.810  1.00  0.00     0.115 A 
ENDROOT
BRANCH   1   7
ATOM      7  C   UNL     1     -16.322  37.749   2.433  1.00  0.00     0.010 C 
ATOM      8  C   UNL     1     -16.792  36.530   2.126  1.00  0.00     0.025 C 
BRANCH   8   9
ATOM      9  C   UNL     1     -15.980  35.377   1.690  1.00  0.00     0.064 C 
ATOM     10  O   UNL     1     -15.691  34.439   2.478  1.00  0.00    -0.545 OA
ATOM     11  O   UNL     1     -15.467  35.361   0.400  1.00  0.00    -0.545 OA
ENDBRANCH   8   9
ENDBRANCH   1   7
BRANCH   6  12
ATOM     12  O   UNL     1     -10.884  39.311   2.939  1.00  0.00    -0.508 OA
ATOM     13  H   UNL     1     -10.597  40.001   3.623  1.00  0.00     0.293 HD
ENDBRANCH   6  12
TORSDOF 3
ENDMDL
MODEL 7
REMARK VINA RESULT:    -4.718      2.842      3.841
REMARK INTER + INTRA:          -5.592
REMARK INTER:                  -5.442
REMARK INTRA:                  -0.150
REMARK UNBOUND:                -0.185
REMARK SMILES O=C([O-])C=Cc1ccc(O)cc1
REMARK SMILES IDX 6 1 7 2 12 3 8 4 11 5 9 6 5 7 4 8 2 9 1 10 3 11 10 12
REMARK H PARENT 10 13
REMARK Flexibility Score: inf
ROOT
ATOM      1  C   UNL     1     -12.985  35.710  -2.879  1.00  0.00    -0.025 A 
ATOM      2  C   UNL     1     -11.939  35.772  -3.812  1.00  0.00     0.012 A 
ATOM      3  C   UNL     1     -12.844  36.364  -1.643  1.00  0.00     0.012 A 
ATOM      4  C   UNL     1     -10.749  36.433  -3.495  1.00  0.00     0.047 A 
ATOM      5  C   UNL     1     -11.652  37.025  -1.328  1.00  0.00     0.047 A 
ATOM      6  C   UNL     1     -10.601  37.059  -2.250  1.00  0.00     0.115 A 
ENDROOT
BRANCH   1   7
ATOM      7  C   UNL     1     -14.253  35.052  -3.257  1.00  0.00     0.010 C 
ATOM      8  C   UNL     1     -14.812  34.014  -2.615  1.00  0.00     0.025 C 
BRANCH   8   9
ATOM      9  C   UNL     1     -14.183  33.228  -1.535  1.00  0.00     0.064 C 
ATOM     10  O   UNL     1     -13.419  32.259  -1.785  1.00  0.00    -0.545 OA
ATOM     11  O   UNL     1     -14.497  33.521  -0.215  1.00  0.00    -0.545 OA
ENDBRANCH   8   9
ENDBRANCH   1   7
BRANCH   6  12
ATOM     12  O   UNL     1      -9.419  37.719  -1.922  1.00  0.00    -0.508 OA
ATOM     13  H   UNL     1      -9.419  38.550  -1.343  1.00  0.00     0.293 HD
ENDBRANCH   6  12
TORSDOF 3
ENDMDL
MODEL 8
REMARK VINA RESULT:    -4.705      4.148      6.619
REMARK INTER + INTRA:          -5.578
REMARK INTER:                  -5.310
REMARK INTRA:                  -0.267
REMARK UNBOUND:                -0.185
REMARK SMILES O=C([O-])C=Cc1ccc(O)cc1
REMARK SMILES IDX 6 1 7 2 12 3 8 4 11 5 9 6 5 7 4 8 2 9 1 10 3 11 10 12
REMARK H PARENT 10 13
REMARK Flexibility Score: inf
ROOT
ATOM      1  C   UNL     1     -17.362  37.766  -2.745  1.00  0.00    -0.025 A 
ATOM      2  C   UNL     1     -16.881  38.815  -1.946  1.00  0.00     0.012 A 
ATOM      3  C   UNL     1     -18.412  36.964  -2.267  1.00  0.00     0.012 A 
ATOM      4  C   UNL     1     -17.405  39.026  -0.667  1.00  0.00     0.047 A 
ATOM      5  C   UNL     1     -18.936  37.177  -0.987  1.00  0.00     0.047 A 
ATOM      6  C   UNL     1     -18.432  38.205  -0.183  1.00  0.00     0.115 A 
ENDROOT
BRANCH   1   7
ATOM      7  C   UNL     1     -16.830  37.595  -4.113  1.00  0.00     0.010 C 
ATOM      8  C   UNL     1     -15.841  36.759  -4.464  1.00  0.00     0.025 C 
BRANCH   8   9
ATOM      9  C   UNL     1     -14.986  35.995  -3.534  1.00  0.00     0.064 C 
ATOM     10  O   UNL     1     -13.786  36.316  -3.328  1.00  0.00    -0.545 OA
ATOM     11  O   UNL     1     -15.497  34.857  -2.926  1.00  0.00    -0.545 OA
ENDBRANCH   8   9
ENDBRANCH   1   7
BRANCH   6  12
ATOM     12  O   UNL     1     -18.962  38.405   1.090  1.00  0.00    -0.508 OA
ATOM     13  H   UNL     1     -19.834  38.899   1.229  1.00  0.00     0.293 HD
ENDBRANCH   6  12
TORSDOF 3
ENDMDL
MODEL 9
REMARK VINA RESULT:    -4.701      1.455      2.110
REMARK INTER + INTRA:          -5.573
REMARK INTER:                  -5.279
REMARK INTRA:                  -0.293
REMARK UNBOUND:                -0.185
REMARK SMILES O=C([O-])C=Cc1ccc(O)cc1
REMARK SMILES IDX 6 1 7 2 12 3 8 4 11 5 9 6 5 7 4 8 2 9 1 10 3 11 10 12
REMARK H PARENT 10 13
REMARK Flexibility Score: inf
ROOT
ATOM      1  C   UNL     1     -14.019  34.316  -1.784  1.00  0.00    -0.025 A 
ATOM      2  C   UNL     1     -14.733  33.433  -2.608  1.00  0.00     0.012 A 
ATOM      3  C   UNL     1     -12.871  34.951  -2.288  1.00  0.00     0.012 A 
ATOM      4  C   UNL     1     -14.276  33.147  -3.898  1.00  0.00     0.047 A 
ATOM      5  C   UNL     1     -12.416  34.664  -3.579  1.00  0.00     0.047 A 
ATOM      6  C   UNL     1     -13.114  33.760  -4.386  1.00  0.00     0.115 A 
ENDROOT
BRANCH   1   7
ATOM      7  C   UNL     1     -14.549  34.643  -0.444  1.00  0.00     0.010 C 
ATOM      8  C   UNL     1     -15.447  35.603  -0.175  1.00  0.00     0.025 C 
BRANCH   8   9
ATOM      9  C   UNL     1     -15.934  36.620  -1.129  1.00  0.00     0.064 C 
ATOM     10  O   UNL     1     -16.937  36.410  -1.860  1.00  0.00    -0.545 OA
ATOM     11  O   UNL     1     -15.228  37.807  -1.270  1.00  0.00    -0.545 OA
ENDBRANCH   8   9
ENDBRANCH   1   7
BRANCH   6  12
ATOM     12  O   UNL     1     -12.649  33.482  -5.669  1.00  0.00    -0.508 OA
ATOM     13  H   UNL     1     -13.082  32.771  -6.247  1.00  0.00     0.293 HD
ENDBRANCH   6  12
TORSDOF 3
ENDMDL
