MODEL 1
REMARK VINA RESULT:    -1.496      0.000      0.000
REMARK INTER + INTRA:          -2.567
REMARK INTER:                  -1.977
REMARK INTRA:                  -0.590
REMARK UNBOUND:                -0.590
REMARK SMILES CC[C@@H](C=C[C@@H](C)[C@@H]1CC[C@H]2[C@H]3CC=C4C[C@H](O)CC[C@]4(C)[C@H]3CC[C@]21C)C(C)C
REMARK SMILES IDX 6 1 7 2 5 3 4 4 3 5 2 6 1 7 28 8 29 9 30 10 8 11 9 12 26 13
REMARK SMILES IDX 10 14 11 15 25 16 27 17 12 18 24 19 23 20 13 21 21 22 14 23
REMARK SMILES IDX 15 24 20 25 22 26 16 27 19 28 17 29 18 30
REMARK H PARENT 18 31
REMARK Flexibility Score: inf
ROOT
ATOM      1  C   UNL     1       3.878  40.316  12.676  1.00  0.00     0.012 C 
ATOM      2  C   UNL     1       5.179  40.613  13.438  1.00  0.00     0.012 C 
ENDROOT
BRANCH   1   3
ATOM      3  C   UNL     1       3.814  38.865  12.223  1.00  0.00    -0.028 C 
ATOM      4  C   UNL     1       2.704  38.100  12.202  1.00  0.00    -0.027 C 
BRANCH   4   5
ATOM      5  C   UNL     1       1.302  38.539  12.602  1.00  0.00     0.014 C 
BRANCH   5   6
ATOM      6  C   UNL     1       1.385  39.451  13.854  1.00  0.00     0.004 C 
ATOM      7  C   UNL     1       0.213  40.422  14.025  1.00  0.00     0.004 C 
ENDBRANCH   5   6
BRANCH   5   8
ATOM      8  C   UNL     1       0.369  37.299  12.767  1.00  0.00    -0.011 C 
ATOM      9  C   UNL     1      -1.112  37.657  12.555  1.00  0.00     0.008 C 
ATOM     10  C   UNL     1       0.758  36.183  11.778  1.00  0.00     0.008 C 
ENDBRANCH   5   8
ENDBRANCH   4   5
ENDBRANCH   1   3
BRANCH   1  11
ATOM     11  C   UNL     1       3.585  41.372  11.557  1.00  0.00     0.002 C 
ATOM     12  C   UNL     1       4.826  41.762  10.762  1.00  0.00     0.005 C 
ATOM     13  C   UNL     1       2.828  42.722  11.838  1.00  0.00    -0.026 C 
ATOM     14  C   UNL     1       4.335  42.858   9.840  1.00  0.00     0.005 C 
ATOM     15  C   UNL     1       3.328  43.660  10.680  1.00  0.00    -0.001 C 
ATOM     16  C   UNL     1       1.287  42.506  11.798  1.00  0.00     0.007 C 
ATOM     17  C   UNL     1       3.202  43.365  13.201  1.00  0.00     0.012 C 
ATOM     18  C   UNL     1       2.233  44.422   9.874  1.00  0.00     0.000 C 
ATOM     19  C   UNL     1       0.442  43.779  11.571  1.00  0.00     0.005 C 
ATOM     20  C   UNL     1       1.157  44.959  10.843  1.00  0.00     0.003 C 
ATOM     21  C   UNL     1       1.565  43.656   8.712  1.00  0.00     0.031 C 
ATOM     22  C   UNL     1       0.163  45.950  10.116  1.00  0.00    -0.008 C 
ATOM     23  C   UNL     1       0.423  44.428   8.106  1.00  0.00    -0.027 C 
ATOM     24  C   UNL     1      -0.237  45.432   8.731  1.00  0.00    -0.065 C 
ATOM     25  C   UNL     1       0.843  47.343   9.905  1.00  0.00     0.014 C 
ATOM     26  C   UNL     1      -1.105  46.163  10.997  1.00  0.00     0.016 C 
ATOM     27  C   UNL     1      -1.123  46.334   7.901  1.00  0.00     0.063 C 
ATOM     28  C   UNL     1       0.030  48.312   9.012  1.00  0.00     0.033 C 
ATOM     29  C   UNL     1      -0.401  47.674   7.675  1.00  0.00     0.118 C 
BRANCH  29  30
ATOM     30  O   UNL     1       0.730  47.488   6.863  1.00  0.00    -0.393 OA
ATOM     31  H   UNL     1       1.431  48.107   7.198  1.00  0.00     0.210 HD
ENDBRANCH  29  30
ENDBRANCH   1  11
TORSDOF 6
ENDMDL
MODEL 2
REMARK VINA RESULT:     0.394      3.499      8.481
REMARK INTER + INTRA:          -0.069
REMARK INTER:                  -0.674
REMARK INTRA:                   0.605
REMARK UNBOUND:                -0.590
REMARK SMILES CC[C@@H](C=C[C@@H](C)[C@@H]1CC[C@H]2[C@H]3CC=C4C[C@H](O)CC[C@]4(C)[C@H]3CC[C@]21C)C(C)C
REMARK SMILES IDX 6 1 7 2 5 3 4 4 3 5 2 6 1 7 28 8 29 9 30 10 8 11 9 12 26 13
REMARK SMILES IDX 10 14 11 15 25 16 27 17 12 18 24 19 23 20 13 21 21 22 14 23
REMARK SMILES IDX 15 24 20 25 22 26 16 27 19 28 17 29 18 30
REMARK H PARENT 18 31
REMARK Flexibility Score: inf
ROOT
ATOM      1  C   UNL     1       2.681  47.009   9.343  1.00  0.00     0.012 C 
ATOM      2  C   UNL     1       1.163  47.148   9.541  1.00  0.00     0.012 C 
ENDROOT
BRANCH   1   3
ATOM      3  C   UNL     1       3.145  47.707   8.073  1.00  0.00    -0.028 C 
ATOM      4  C   UNL     1       4.310  48.371   7.926  1.00  0.00    -0.027 C 
BRANCH   4   5
ATOM      5  C   UNL     1       5.392  48.533   8.984  1.00  0.00     0.014 C 
BRANCH   5   6
ATOM      6  C   UNL     1       6.272  49.762   8.636  1.00  0.00     0.004 C 
ATOM      7  C   UNL     1       6.679  50.625   9.835  1.00  0.00     0.004 C 
ENDBRANCH   5   6
BRANCH   5   8
ATOM      8  C   UNL     1       6.185  47.201   9.161  1.00  0.00    -0.011 C 
ATOM      9  C   UNL     1       7.705  47.434   9.202  1.00  0.00     0.008 C 
ATOM     10  C   UNL     1       5.758  46.474  10.451  1.00  0.00     0.008 C 
ENDBRANCH   5   8
ENDBRANCH   4   5
ENDBRANCH   1   3
BRANCH   1  11
ATOM     11  C   UNL     1       3.173  45.531   9.504  1.00  0.00     0.002 C 
ATOM     12  C   UNL     1       3.636  44.908   8.192  1.00  0.00     0.005 C 
ATOM     13  C   UNL     1       2.313  44.421  10.214  1.00  0.00    -0.026 C 
ATOM     14  C   UNL     1       3.944  43.472   8.563  1.00  0.00     0.005 C 
ATOM     15  C   UNL     1       2.864  43.088   9.588  1.00  0.00    -0.001 C 
ATOM     16  C   UNL     1       2.513  44.474  11.756  1.00  0.00     0.007 C 
ATOM     17  C   UNL     1       0.795  44.528   9.907  1.00  0.00     0.012 C 
ATOM     18  C   UNL     1       3.254  41.955  10.585  1.00  0.00     0.000 C 
ATOM     19  C   UNL     1       2.141  43.185  12.521  1.00  0.00     0.005 C 
ATOM     20  C   UNL     1       2.190  41.859  11.700  1.00  0.00     0.003 C 
ATOM     21  C   UNL     1       4.665  42.028  11.204  1.00  0.00     0.031 C 
ATOM     22  C   UNL     1       2.396  40.570  12.591  1.00  0.00    -0.008 C 
ATOM     23  C   UNL     1       4.876  40.977  12.262  1.00  0.00    -0.027 C 
ATOM     24  C   UNL     1       3.876  40.340  12.915  1.00  0.00    -0.065 C 
ATOM     25  C   UNL     1       1.891  39.299  11.831  1.00  0.00     0.014 C 
ATOM     26  C   UNL     1       1.571  40.703  13.907  1.00  0.00     0.016 C 
ATOM     27  C   UNL     1       4.211  39.089  13.696  1.00  0.00     0.063 C 
ATOM     28  C   UNL     1       2.247  37.964  12.531  1.00  0.00     0.033 C 
ATOM     29  C   UNL     1       3.742  37.860  12.896  1.00  0.00     0.118 C 
BRANCH  29  30
ATOM     30  O   UNL     1       4.499  37.726  11.720  1.00  0.00    -0.393 OA
ATOM     31  H   UNL     1       5.204  37.052  11.907  1.00  0.00     0.210 HD
ENDBRANCH  29  30
ENDBRANCH   1  11
TORSDOF 6
ENDMDL
MODEL 3
REMARK VINA RESULT:     0.470      1.485      2.688
REMARK INTER + INTRA:           0.032
REMARK INTER:                  -0.691
REMARK INTRA:                   0.723
REMARK UNBOUND:                -0.590
REMARK SMILES CC[C@@H](C=C[C@@H](C)[C@@H]1CC[C@H]2[C@H]3CC=C4C[C@H](O)CC[C@]4(C)[C@H]3CC[C@]21C)C(C)C
REMARK SMILES IDX 6 1 7 2 5 3 4 4 3 5 2 6 1 7 28 8 29 9 30 10 8 11 9 12 26 13
REMARK SMILES IDX 10 14 11 15 25 16 27 17 12 18 24 19 23 20 13 21 21 22 14 23
REMARK SMILES IDX 15 24 20 25 22 26 16 27 19 28 17 29 18 30
REMARK H PARENT 18 31
REMARK Flexibility Score: inf
ROOT
ATOM      1  C   UNL     1       4.132  41.709  11.058  1.00  0.00     0.012 C 
ATOM      2  C   UNL     1       3.050  40.806  10.441  1.00  0.00     0.012 C 
ENDROOT
BRANCH   1   3
ATOM      3  C   UNL     1       4.382  41.363  12.518  1.00  0.00    -0.028 C 
ATOM      4  C   UNL     1       3.706  40.438  13.230  1.00  0.00    -0.027 C 
BRANCH   4   5
ATOM      5  C   UNL     1       2.584  39.549  12.712  1.00  0.00     0.014 C 
BRANCH   5   6
ATOM      6  C   UNL     1       1.335  39.717  13.617  1.00  0.00     0.004 C 
ATOM      7  C   UNL     1       0.729  41.123  13.626  1.00  0.00     0.004 C 
ENDBRANCH   5   6
BRANCH   5   8
ATOM      8  C   UNL     1       3.081  38.077  12.564  1.00  0.00    -0.011 C 
ATOM      9  C   UNL     1       2.062  37.195  11.821  1.00  0.00     0.008 C 
ATOM     10  C   UNL     1       4.425  38.024  11.814  1.00  0.00     0.008 C 
ENDBRANCH   5   8
ENDBRANCH   4   5
ENDBRANCH   1   3
BRANCH   1  11
ATOM     11  C   UNL     1       3.879  43.227  10.770  1.00  0.00     0.002 C 
ATOM     12  C   UNL     1       4.524  44.148  11.800  1.00  0.00     0.005 C 
ATOM     13  C   UNL     1       2.442  43.819  10.523  1.00  0.00    -0.026 C 
ATOM     14  C   UNL     1       4.054  45.529  11.395  1.00  0.00     0.005 C 
ATOM     15  C   UNL     1       2.605  45.331  10.922  1.00  0.00    -0.001 C 
ATOM     16  C   UNL     1       2.025  43.644   9.034  1.00  0.00     0.007 C 
ATOM     17  C   UNL     1       1.350  43.179  11.421  1.00  0.00     0.012 C 
ATOM     18  C   UNL     1       2.080  46.385   9.900  1.00  0.00     0.000 C 
ATOM     19  C   UNL     1       0.898  44.579   8.543  1.00  0.00     0.005 C 
ATOM     20  C   UNL     1       0.725  45.917   9.326  1.00  0.00     0.003 C 
ATOM     21  C   UNL     1       3.034  46.779   8.753  1.00  0.00     0.031 C 
ATOM     22  C   UNL     1       0.026  47.058   8.483  1.00  0.00    -0.008 C 
ATOM     23  C   UNL     1       2.371  47.681   7.747  1.00  0.00    -0.027 C 
ATOM     24  C   UNL     1       1.030  47.793   7.589  1.00  0.00    -0.065 C 
ATOM     25  C   UNL     1      -0.607  48.126   9.435  1.00  0.00     0.014 C 
ATOM     26  C   UNL     1      -1.117  46.447   7.617  1.00  0.00     0.016 C 
ATOM     27  C   UNL     1       0.497  48.963   6.792  1.00  0.00     0.063 C 
ATOM     28  C   UNL     1      -1.125  49.390   8.706  1.00  0.00     0.033 C 
ATOM     29  C   UNL     1      -0.074  50.011   7.764  1.00  0.00     0.118 C 
BRANCH  29  30
ATOM     30  O   UNL     1       0.959  50.579   8.530  1.00  0.00    -0.393 OA
ATOM     31  H   UNL     1       1.587  49.844   8.757  1.00  0.00     0.210 HD
ENDBRANCH  29  30
ENDBRANCH   1  11
TORSDOF 6
ENDMDL
MODEL 4
REMARK VINA RESULT:     0.932      3.143      8.171
REMARK INTER + INTRA:           0.642
REMARK INTER:                  -1.228
REMARK INTRA:                   1.870
REMARK UNBOUND:                -0.590
REMARK SMILES CC[C@@H](C=C[C@@H](C)[C@@H]1CC[C@H]2[C@H]3CC=C4C[C@H](O)CC[C@]4(C)[C@H]3CC[C@]21C)C(C)C
REMARK SMILES IDX 6 1 7 2 5 3 4 4 3 5 2 6 1 7 28 8 29 9 30 10 8 11 9 12 26 13
REMARK SMILES IDX 10 14 11 15 25 16 27 17 12 18 24 19 23 20 13 21 21 22 14 23
REMARK SMILES IDX 15 24 20 25 22 26 16 27 19 28 17 29 18 30
REMARK H PARENT 18 31
REMARK Flexibility Score: inf
ROOT
ATOM      1  C   UNL     1       1.764  47.204   9.382  1.00  0.00     0.012 C 
ATOM      2  C   UNL     1       0.260  47.503   9.488  1.00  0.00     0.012 C 
ENDROOT
BRANCH   1   3
ATOM      3  C   UNL     1       2.405  47.964   8.231  1.00  0.00    -0.028 C 
ATOM      4  C   UNL     1       3.726  48.006   7.960  1.00  0.00    -0.027 C 
BRANCH   4   5
ATOM      5  C   UNL     1       4.825  47.290   8.733  1.00  0.00     0.014 C 
BRANCH   5   6
ATOM      6  C   UNL     1       4.401  47.148  10.218  1.00  0.00     0.004 C 
ATOM      7  C   UNL     1       4.880  45.865  10.906  1.00  0.00     0.004 C 
ENDBRANCH   5   6
BRANCH   5   8
ATOM      8  C   UNL     1       6.195  48.004   8.518  1.00  0.00    -0.011 C 
ATOM      9  C   UNL     1       6.100  49.522   8.750  1.00  0.00     0.008 C 
ATOM     10  C   UNL     1       7.270  47.424   9.456  1.00  0.00     0.008 C 
ENDBRANCH   5   8
ENDBRANCH   4   5
ENDBRANCH   1   3
BRANCH   1  11
ATOM     11  C   UNL     1       2.073  45.669   9.416  1.00  0.00     0.002 C 
ATOM     12  C   UNL     1       1.822  44.978   8.080  1.00  0.00     0.005 C 
ATOM     13  C   UNL     1       1.473  44.704  10.504  1.00  0.00    -0.026 C 
ATOM     14  C   UNL     1       2.066  43.514   8.380  1.00  0.00     0.005 C 
ATOM     15  C   UNL     1       1.507  43.301   9.795  1.00  0.00    -0.001 C 
ATOM     16  C   UNL     1       2.337  44.732  11.798  1.00  0.00     0.007 C 
ATOM     17  C   UNL     1       0.005  45.039  10.882  1.00  0.00     0.012 C 
ATOM     18  C   UNL     1       2.140  42.126  10.600  1.00  0.00     0.000 C 
ATOM     19  C   UNL     1       2.170  43.516  12.737  1.00  0.00     0.005 C 
ATOM     20  C   UNL     1       1.674  42.196  12.070  1.00  0.00     0.003 C 
ATOM     21  C   UNL     1       3.676  41.986  10.537  1.00  0.00     0.031 C 
ATOM     22  C   UNL     1       2.076  40.893  12.871  1.00  0.00    -0.008 C 
ATOM     23  C   UNL     1       4.188  40.919  11.468  1.00  0.00    -0.027 C 
ATOM     24  C   UNL     1       3.502  40.443  12.534  1.00  0.00    -0.065 C 
ATOM     25  C   UNL     1       1.123  39.711  12.496  1.00  0.00     0.014 C 
ATOM     26  C   UNL     1       1.942  41.154  14.401  1.00  0.00     0.016 C 
ATOM     27  C   UNL     1       3.975  39.158  13.176  1.00  0.00     0.063 C 
ATOM     28  C   UNL     1       1.567  38.340  13.063  1.00  0.00     0.033 C 
ATOM     29  C   UNL     1       3.041  38.011  12.748  1.00  0.00     0.118 C 
BRANCH  29  30
ATOM     30  O   UNL     1       3.177  37.761  11.372  1.00  0.00    -0.393 OA
ATOM     31  H   UNL     1       4.082  38.076  11.110  1.00  0.00     0.210 HD
ENDBRANCH  29  30
ENDBRANCH   1  11
TORSDOF 6
ENDMDL
