MODEL 1
REMARK VINA RESULT:     2.931      0.000      0.000
REMARK INTER + INTRA:           4.057
REMARK INTER:                   3.617
REMARK INTRA:                   0.441
REMARK UNBOUND:                 0.441
REMARK SMILES Oc1cc(O)c2cc(O)c(-c3cc(O)c(O)c(O)c3)[o+]c2c1
REMARK SMILES IDX 10 1 20 2 21 3 22 4 2 5 3 6 4 7 6 8 7 9 8 10 11 11 12 12
REMARK SMILES IDX 13 13 19 14 15 15 17 16 14 17 16 19 18 21 9 23 1 25 5 27
REMARK H PARENT 14 18 16 20 18 22 9 24 1 26 5 28
REMARK Flexibility Score: inf
ROOT
ATOM      1  C   UNL     1      25.475  18.160   6.409  1.00  0.00     0.402 A 
ATOM      2  O   UNL     1      25.717  19.034   5.436  1.00  0.00    -0.202 OA
ATOM      3  C   UNL     1      25.630  18.733   4.145  1.00  0.00     0.368 A 
ATOM      4  C   UNL     1      25.906  19.720   3.195  1.00  0.00     0.162 A 
ATOM      5  C   UNL     1      25.824  19.428   1.830  1.00  0.00     0.128 A 
ATOM      6  C   UNL     1      25.465  18.144   1.414  1.00  0.00     0.093 A 
ATOM      7  C   UNL     1      25.182  17.137   2.345  1.00  0.00     0.136 A 
ATOM      8  C   UNL     1      25.262  17.429   3.732  1.00  0.00     0.125 A 
ATOM      9  C   UNL     1      24.983  16.487   4.736  1.00  0.00     0.078 A 
ATOM     10  C   UNL     1      25.079  16.849   6.083  1.00  0.00     0.223 A 
ENDROOT
BRANCH   1  11
ATOM     11  C   UNL     1      25.617  18.614   7.812  1.00  0.00     0.091 A 
ATOM     12  C   UNL     1      25.512  17.681   8.852  1.00  0.00     0.068 A 
ATOM     13  C   UNL     1      25.620  18.077  10.190  1.00  0.00     0.162 A 
ATOM     14  C   UNL     1      25.797  19.969   8.126  1.00  0.00     0.068 A 
ATOM     15  C   UNL     1      25.825  19.444  10.501  1.00  0.00     0.200 A 
ATOM     16  C   UNL     1      25.906  20.383   9.457  1.00  0.00     0.162 A 
BRANCH  13  17
ATOM     17  O   UNL     1      25.517  17.087  11.170  1.00  0.00    -0.504 OA
ATOM     18  H   UNL     1      24.670  16.580  11.377  1.00  0.00     0.293 HD
ENDBRANCH  13  17
BRANCH  15  19
ATOM     19  O   UNL     1      25.948  19.898  11.816  1.00  0.00    -0.502 OA
ATOM     20  H   UNL     1      26.447  20.734  12.084  1.00  0.00     0.293 HD
ENDBRANCH  15  19
BRANCH  16  21
ATOM     21  O   UNL     1      26.091  21.739   9.722  1.00  0.00    -0.504 OA
ATOM     22  H   UNL     1      26.781  22.072  10.385  1.00  0.00     0.293 HD
ENDBRANCH  16  21
ENDBRANCH   1  11
BRANCH  10  23
ATOM     23  O   UNL     1      24.755  15.928   7.080  1.00  0.00    -0.500 OA
ATOM     24  H   UNL     1      23.849  15.933   7.534  1.00  0.00     0.294 HD
ENDBRANCH  10  23
BRANCH   5  25
ATOM     25  O   UNL     1      26.098  20.407   0.878  1.00  0.00    -0.507 OA
ATOM     26  H   UNL     1      26.570  20.184   0.009  1.00  0.00     0.293 HD
ENDBRANCH   5  25
BRANCH   7  27
ATOM     27  O   UNL     1      24.833  15.880   1.847  1.00  0.00    -0.507 OA
ATOM     28  H   UNL     1      23.888  15.529   1.794  1.00  0.00     0.293 HD
ENDBRANCH   7  27
TORSDOF 7
ENDMDL
MODEL 2
REMARK VINA RESULT:     5.908      1.886      7.786
REMARK INTER + INTRA:           7.730
REMARK INTER:                   7.337
REMARK INTRA:                   0.393
REMARK UNBOUND:                 0.441
REMARK SMILES Oc1cc(O)c2cc(O)c(-c3cc(O)c(O)c(O)c3)[o+]c2c1
REMARK SMILES IDX 10 1 20 2 21 3 22 4 2 5 3 6 4 7 6 8 7 9 8 10 11 11 12 12
REMARK SMILES IDX 13 13 19 14 15 15 17 16 14 17 16 19 18 21 9 23 1 25 5 27
REMARK H PARENT 14 18 16 20 18 22 9 24 1 26 5 28
REMARK Flexibility Score: inf
ROOT
ATOM      1  C   UNL     1      25.425  19.322   8.782  1.00  0.00     0.402 A 
ATOM      2  O   UNL     1      25.060  18.419   9.687  1.00  0.00    -0.202 OA
ATOM      3  C   UNL     1      25.045  18.658  10.994  1.00  0.00     0.368 A 
ATOM      4  C   UNL     1      24.646  17.643  11.867  1.00  0.00     0.162 A 
ATOM      5  C   UNL     1      24.625  17.868  13.247  1.00  0.00     0.128 A 
ATOM      6  C   UNL     1      25.004  19.112  13.755  1.00  0.00     0.093 A 
ATOM      7  C   UNL     1      25.408  20.146  12.901  1.00  0.00     0.136 A 
ATOM      8  C   UNL     1      25.428  19.924  11.500  1.00  0.00     0.125 A 
ATOM      9  C   UNL     1      25.805  20.905  10.568  1.00  0.00     0.078 A 
ATOM     10  C   UNL     1      25.797  20.614   9.201  1.00  0.00     0.223 A 
ENDROOT
BRANCH   1  11
ATOM     11  C   UNL     1      25.409  18.931   7.354  1.00  0.00     0.091 A 
ATOM     12  C   UNL     1      25.087  17.612   7.004  1.00  0.00     0.068 A 
ATOM     13  C   UNL     1      25.082  17.201   5.666  1.00  0.00     0.162 A 
ATOM     14  C   UNL     1      25.766  19.837   6.344  1.00  0.00     0.068 A 
ATOM     15  C   UNL     1      25.420  18.127   4.649  1.00  0.00     0.200 A 
ATOM     16  C   UNL     1      25.768  19.443   5.002  1.00  0.00     0.162 A 
BRANCH  13  17
ATOM     17  O   UNL     1      24.738  15.875   5.396  1.00  0.00    -0.504 OA
ATOM     18  H   UNL     1      24.524  15.189   6.105  1.00  0.00     0.293 HD
ENDBRANCH  13  17
BRANCH  15  19
ATOM     19  O   UNL     1      25.426  17.777   3.296  1.00  0.00    -0.502 OA
ATOM     20  H   UNL     1      25.806  16.915   2.934  1.00  0.00     0.293 HD
ENDBRANCH  15  19
BRANCH  16  21
ATOM     21  O   UNL     1      26.122  20.379   4.031  1.00  0.00    -0.504 OA
ATOM     22  H   UNL     1      26.622  20.122   3.188  1.00  0.00     0.293 HD
ENDBRANCH  16  21
ENDBRANCH   1  11
BRANCH  10  23
ATOM     23  O   UNL     1      26.123  21.603   8.272  1.00  0.00    -0.500 OA
ATOM     24  H   UNL     1      27.049  22.010   8.232  1.00  0.00     0.294 HD
ENDBRANCH  10  23
BRANCH   5  25
ATOM     25  O   UNL     1      24.229  16.860  14.124  1.00  0.00    -0.507 OA
ATOM     26  H   UNL     1      23.378  16.937  14.669  1.00  0.00     0.293 HD
ENDBRANCH   5  25
BRANCH   7  27
ATOM     27  O   UNL     1      25.774  21.360  13.488  1.00  0.00    -0.507 OA
ATOM     28  H   UNL     1      26.013  21.475  14.462  1.00  0.00     0.293 HD
ENDBRANCH   7  27
TORSDOF 7
ENDMDL
