MODEL 1
REMARK VINA RESULT:    -7.374      0.000      0.000
REMARK INTER + INTRA:          -8.934
REMARK INTER:                  -8.668
REMARK INTRA:                  -0.266
REMARK UNBOUND:                -0.266
REMARK SMILES O=c1cc(-c2ccc(O)c(O)c2)oc2cc(O)cc(O)c12
REMARK SMILES IDX 4 1 3 2 2 3 1 4 21 5 19 6 18 7 16 8 15 9 14 10 13 11 5 12
REMARK SMILES IDX 6 13 7 14 8 15 12 16 10 17 9 18 11 20 20 22 17 24
REMARK H PARENT 9 19 11 21 20 23 17 25
REMARK Flexibility Score: inf
ROOT
ATOM      1  C   UNL     1      42.048  43.849   3.957  1.00  0.00     0.138 A 
ATOM      2  C   UNL     1      43.362  43.776   3.463  1.00  0.00     0.100 A 
ATOM      3  C   UNL     1      44.172  42.699   3.826  1.00  0.00     0.197 A 
ATOM      4  O   UNL     1      45.349  42.643   3.380  1.00  0.00    -0.289 OA
ATOM      5  C   UNL     1      43.664  41.705   4.686  1.00  0.00     0.107 A 
ATOM      6  C   UNL     1      44.417  40.582   5.102  1.00  0.00     0.134 A 
ATOM      7  C   UNL     1      43.840  39.638   5.965  1.00  0.00     0.093 A 
ATOM      8  C   UNL     1      42.528  39.796   6.418  1.00  0.00     0.123 A 
ATOM      9  C   UNL     1      41.778  40.904   6.009  1.00  0.00     0.094 A 
ATOM     10  C   UNL     1      42.335  41.855   5.149  1.00  0.00     0.146 A 
ATOM     11  O   UNL     1      41.602  42.899   4.774  1.00  0.00    -0.456 OA
ENDROOT
BRANCH   1  12
ATOM     12  C   UNL     1      41.141  44.971   3.605  1.00  0.00     0.021 A 
ATOM     13  C   UNL     1      40.546  45.005   2.335  1.00  0.00     0.016 A 
ATOM     14  C   UNL     1      39.695  46.052   1.976  1.00  0.00     0.051 A 
ATOM     15  C   UNL     1      39.427  47.092   2.872  1.00  0.00     0.157 A 
ATOM     16  C   UNL     1      40.884  46.026   4.502  1.00  0.00     0.062 A 
ATOM     17  C   UNL     1      40.034  47.082   4.150  1.00  0.00     0.158 A 
BRANCH  15  18
ATOM     18  O   UNL     1      38.562  48.106   2.455  1.00  0.00    -0.504 OA
ATOM     19  H   UNL     1      38.435  48.979   2.947  1.00  0.00     0.293 HD
ENDBRANCH  15  18
BRANCH  17  20
ATOM     20  O   UNL     1      39.826  48.093   5.090  1.00  0.00    -0.504 OA
ATOM     21  H   UNL     1      39.000  48.671   5.124  1.00  0.00     0.293 HD
ENDBRANCH  17  20
ENDBRANCH   1  12
BRANCH   6  22
ATOM     22  O   UNL     1      45.731  40.398   4.667  1.00  0.00    -0.507 OA
ATOM     23  H   UNL     1      46.306  39.638   5.014  1.00  0.00     0.293 HD
ENDBRANCH   6  22
BRANCH   8  24
ATOM     24  O   UNL     1      41.978  38.844   7.274  1.00  0.00    -0.508 OA
ATOM     25  H   UNL     1      42.561  38.207   7.803  1.00  0.00     0.293 HD
ENDBRANCH   8  24
TORSDOF 5
ENDMDL
MODEL 2
REMARK VINA RESULT:    -6.579      1.670      2.105
REMARK INTER + INTRA:          -8.000
REMARK INTER:                  -7.734
REMARK INTRA:                  -0.265
REMARK UNBOUND:                -0.266
REMARK SMILES O=c1cc(-c2ccc(O)c(O)c2)oc2cc(O)cc(O)c12
REMARK SMILES IDX 4 1 3 2 2 3 1 4 21 5 19 6 18 7 16 8 15 9 14 10 13 11 5 12
REMARK SMILES IDX 6 13 7 14 8 15 12 16 10 17 9 18 11 20 20 22 17 24
REMARK H PARENT 9 19 11 21 20 23 17 25
REMARK Flexibility Score: inf
ROOT
ATOM      1  C   UNL     1      41.870  42.737   4.056  1.00  0.00     0.138 A 
ATOM      2  C   UNL     1      42.352  42.092   2.905  1.00  0.00     0.100 A 
ATOM      3  C   UNL     1      42.868  40.799   3.008  1.00  0.00     0.197 A 
ATOM      4  O   UNL     1      43.300  40.229   1.970  1.00  0.00    -0.289 OA
ATOM      5  C   UNL     1      42.901  40.161   4.264  1.00  0.00     0.107 A 
ATOM      6  C   UNL     1      43.406  38.853   4.455  1.00  0.00     0.134 A 
ATOM      7  C   UNL     1      43.409  38.290   5.740  1.00  0.00     0.093 A 
ATOM      8  C   UNL     1      42.920  39.008   6.834  1.00  0.00     0.123 A 
ATOM      9  C   UNL     1      42.419  40.302   6.650  1.00  0.00     0.094 A 
ATOM     10  C   UNL     1      42.406  40.880   5.378  1.00  0.00     0.146 A 
ATOM     11  O   UNL     1      41.925  42.110   5.229  1.00  0.00    -0.456 OA
ENDROOT
BRANCH   1  12
ATOM     12  C   UNL     1      41.311  44.112   4.007  1.00  0.00     0.021 A 
ATOM     13  C   UNL     1      42.041  45.174   4.560  1.00  0.00     0.016 A 
ATOM     14  C   UNL     1      41.535  46.474   4.533  1.00  0.00     0.051 A 
ATOM     15  C   UNL     1      40.287  46.743   3.962  1.00  0.00     0.157 A 
ATOM     16  C   UNL     1      40.047  44.378   3.445  1.00  0.00     0.062 A 
ATOM     17  C   UNL     1      39.530  45.680   3.416  1.00  0.00     0.158 A 
BRANCH  15  18
ATOM     18  O   UNL     1      39.841  48.066   3.961  1.00  0.00    -0.504 OA
ATOM     19  H   UNL     1      39.626  48.591   4.797  1.00  0.00     0.293 HD
ENDBRANCH  15  18
BRANCH  17  20
ATOM     20  O   UNL     1      38.271  45.868   2.844  1.00  0.00    -0.504 OA
ATOM     21  H   UNL     1      37.428  46.034   3.376  1.00  0.00     0.293 HD
ENDBRANCH  17  20
ENDBRANCH   1  12
BRANCH   6  22
ATOM     22  O   UNL     1      43.903  38.111   3.382  1.00  0.00    -0.507 OA
ATOM     23  H   UNL     1      44.101  38.540   2.485  1.00  0.00     0.293 HD
ENDBRANCH   6  22
BRANCH   8  24
ATOM     24  O   UNL     1      42.934  38.426   8.099  1.00  0.00    -0.508 OA
ATOM     25  H   UNL     1      43.784  38.369   8.647  1.00  0.00     0.293 HD
ENDBRANCH   8  24
TORSDOF 5
ENDMDL
MODEL 3
REMARK VINA RESULT:    -6.530      2.193      3.324
REMARK INTER + INTRA:          -7.941
REMARK INTER:                  -7.645
REMARK INTRA:                  -0.295
REMARK UNBOUND:                -0.266
REMARK SMILES O=c1cc(-c2ccc(O)c(O)c2)oc2cc(O)cc(O)c12
REMARK SMILES IDX 4 1 3 2 2 3 1 4 21 5 19 6 18 7 16 8 15 9 14 10 13 11 5 12
REMARK SMILES IDX 6 13 7 14 8 15 12 16 10 17 9 18 11 20 20 22 17 24
REMARK H PARENT 9 19 11 21 20 23 17 25
REMARK Flexibility Score: inf
ROOT
ATOM      1  C   UNL     1      40.271  45.449   3.409  1.00  0.00     0.138 A 
ATOM      2  C   UNL     1      39.830  44.260   2.803  1.00  0.00     0.100 A 
ATOM      3  C   UNL     1      40.626  43.116   2.878  1.00  0.00     0.197 A 
ATOM      4  O   UNL     1      40.223  42.055   2.330  1.00  0.00    -0.289 OA
ATOM      5  C   UNL     1      41.862  43.170   3.554  1.00  0.00     0.107 A 
ATOM      6  C   UNL     1      42.728  42.058   3.676  1.00  0.00     0.134 A 
ATOM      7  C   UNL     1      43.944  42.196   4.360  1.00  0.00     0.093 A 
ATOM      8  C   UNL     1      44.311  43.421   4.924  1.00  0.00     0.123 A 
ATOM      9  C   UNL     1      43.457  44.524   4.807  1.00  0.00     0.094 A 
ATOM     10  C   UNL     1      42.241  44.407   4.129  1.00  0.00     0.146 A 
ATOM     11  O   UNL     1      41.447  45.469   4.031  1.00  0.00    -0.456 OA
ENDROOT
BRANCH   1  12
ATOM     12  C   UNL     1      39.467  46.696   3.362  1.00  0.00     0.021 A 
ATOM     13  C   UNL     1      38.846  47.072   2.161  1.00  0.00     0.016 A 
ATOM     14  C   UNL     1      38.091  48.244   2.089  1.00  0.00     0.051 A 
ATOM     15  C   UNL     1      37.945  49.069   3.209  1.00  0.00     0.157 A 
ATOM     16  C   UNL     1      39.333  47.534   4.486  1.00  0.00     0.062 A 
ATOM     17  C   UNL     1      38.579  48.713   4.422  1.00  0.00     0.158 A 
BRANCH  15  18
ATOM     18  O   UNL     1      37.170  50.223   3.072  1.00  0.00    -0.504 OA
ATOM     19  H   UNL     1      36.663  50.467   2.233  1.00  0.00     0.293 HD
ENDBRANCH  15  18
BRANCH  17  20
ATOM     20  O   UNL     1      38.492  49.495   5.575  1.00  0.00    -0.504 OA
ATOM     21  H   UNL     1      38.012  50.381   5.621  1.00  0.00     0.293 HD
ENDBRANCH  17  20
ENDBRANCH   1  12
BRANCH   6  22
ATOM     22  O   UNL     1      42.390  40.821   3.123  1.00  0.00    -0.507 OA
ATOM     23  H   UNL     1      42.874  40.450   2.313  1.00  0.00     0.293 HD
ENDBRANCH   6  22
BRANCH   8  24
ATOM     24  O   UNL     1      45.524  43.531   5.599  1.00  0.00    -0.508 OA
ATOM     25  H   UNL     1      45.694  44.275   6.265  1.00  0.00     0.293 HD
ENDBRANCH   8  24
TORSDOF 5
ENDMDL
MODEL 4
REMARK VINA RESULT:    -6.412      1.890      6.864
REMARK INTER + INTRA:          -7.803
REMARK INTER:                  -7.538
REMARK INTRA:                  -0.265
REMARK UNBOUND:                -0.266
REMARK SMILES O=c1cc(-c2ccc(O)c(O)c2)oc2cc(O)cc(O)c12
REMARK SMILES IDX 4 1 3 2 2 3 1 4 21 5 19 6 18 7 16 8 15 9 14 10 13 11 5 12
REMARK SMILES IDX 6 13 7 14 8 15 12 16 10 17 9 18 11 20 20 22 17 24
REMARK H PARENT 9 19 11 21 20 23 17 25
REMARK Flexibility Score: inf
ROOT
ATOM      1  C   UNL     1      42.884  41.919   4.160  1.00  0.00     0.138 A 
ATOM      2  C   UNL     1      44.002  42.768   4.100  1.00  0.00     0.100 A 
ATOM      3  C   UNL     1      43.821  44.120   3.803  1.00  0.00     0.197 A 
ATOM      4  O   UNL     1      44.830  44.874   3.750  1.00  0.00    -0.289 OA
ATOM      5  C   UNL     1      42.522  44.613   3.562  1.00  0.00     0.107 A 
ATOM      6  C   UNL     1      42.252  45.967   3.256  1.00  0.00     0.134 A 
ATOM      7  C   UNL     1      40.931  46.377   3.023  1.00  0.00     0.093 A 
ATOM      8  C   UNL     1      39.878  45.461   3.092  1.00  0.00     0.123 A 
ATOM      9  C   UNL     1      40.140  44.121   3.396  1.00  0.00     0.094 A 
ATOM     10  C   UNL     1      41.450  43.693   3.631  1.00  0.00     0.146 A 
ATOM     11  O   UNL     1      41.672  42.414   3.918  1.00  0.00    -0.456 OA
ENDROOT
BRANCH   1  12
ATOM     12  C   UNL     1      43.016  40.473   4.472  1.00  0.00     0.021 A 
ATOM     13  C   UNL     1      43.211  39.557   3.427  1.00  0.00     0.016 A 
ATOM     14  C   UNL     1      43.331  38.192   3.692  1.00  0.00     0.051 A 
ATOM     15  C   UNL     1      43.249  37.710   5.003  1.00  0.00     0.157 A 
ATOM     16  C   UNL     1      42.918  39.987   5.789  1.00  0.00     0.062 A 
ATOM     17  C   UNL     1      43.035  38.619   6.065  1.00  0.00     0.158 A 
BRANCH  15  18
ATOM     18  O   UNL     1      43.384  36.334   5.201  1.00  0.00    -0.504 OA
ATOM     19  H   UNL     1      43.339  35.887   6.105  1.00  0.00     0.293 HD
ENDBRANCH  15  18
BRANCH  17  20
ATOM     20  O   UNL     1      42.926  38.210   7.396  1.00  0.00    -0.504 OA
ATOM     21  H   UNL     1      43.656  38.328   8.084  1.00  0.00     0.293 HD
ENDBRANCH  17  20
ENDBRANCH   1  12
BRANCH   6  22
ATOM     22  O   UNL     1      43.283  46.905   3.179  1.00  0.00    -0.507 OA
ATOM     23  H   UNL     1      43.149  47.869   3.463  1.00  0.00     0.293 HD
ENDBRANCH   6  22
BRANCH   8  24
ATOM     24  O   UNL     1      38.575  45.894   2.858  1.00  0.00    -0.508 OA
ATOM     25  H   UNL     1      37.813  45.238   2.736  1.00  0.00     0.293 HD
ENDBRANCH   8  24
TORSDOF 5
ENDMDL
MODEL 5
REMARK VINA RESULT:    -6.232      1.875      2.105
REMARK INTER + INTRA:          -7.591
REMARK INTER:                  -7.320
REMARK INTRA:                  -0.271
REMARK UNBOUND:                -0.266
REMARK SMILES O=c1cc(-c2ccc(O)c(O)c2)oc2cc(O)cc(O)c12
REMARK SMILES IDX 4 1 3 2 2 3 1 4 21 5 19 6 18 7 16 8 15 9 14 10 13 11 5 12
REMARK SMILES IDX 6 13 7 14 8 15 12 16 10 17 9 18 11 20 20 22 17 24
REMARK H PARENT 9 19 11 21 20 23 17 25
REMARK Flexibility Score: inf
ROOT
ATOM      1  C   UNL     1      41.626  45.095   3.616  1.00  0.00     0.138 A 
ATOM      2  C   UNL     1      42.917  45.460   4.034  1.00  0.00     0.100 A 
ATOM      3  C   UNL     1      43.908  44.483   4.134  1.00  0.00     0.197 A 
ATOM      4  O   UNL     1      45.063  44.820   4.510  1.00  0.00    -0.289 OA
ATOM      5  C   UNL     1      43.600  43.144   3.821  1.00  0.00     0.107 A 
ATOM      6  C   UNL     1      44.544  42.093   3.895  1.00  0.00     0.134 A 
ATOM      7  C   UNL     1      44.156  40.785   3.572  1.00  0.00     0.093 A 
ATOM      8  C   UNL     1      42.845  40.507   3.177  1.00  0.00     0.123 A 
ATOM      9  C   UNL     1      41.907  41.543   3.100  1.00  0.00     0.094 A 
ATOM     10  C   UNL     1      42.275  42.854   3.418  1.00  0.00     0.146 A 
ATOM     11  O   UNL     1      41.365  43.820   3.337  1.00  0.00    -0.456 OA
ENDROOT
BRANCH   1  12
ATOM     12  C   UNL     1      40.532  46.091   3.492  1.00  0.00     0.021 A 
ATOM     13  C   UNL     1      39.847  46.215   2.273  1.00  0.00     0.016 A 
ATOM     14  C   UNL     1      38.820  47.149   2.128  1.00  0.00     0.051 A 
ATOM     15  C   UNL     1      38.460  47.985   3.190  1.00  0.00     0.157 A 
ATOM     16  C   UNL     1      40.181  46.943   4.557  1.00  0.00     0.062 A 
ATOM     17  C   UNL     1      39.153  47.884   4.419  1.00  0.00     0.158 A 
BRANCH  15  18
ATOM     18  O   UNL     1      37.419  48.893   2.982  1.00  0.00    -0.504 OA
ATOM     19  H   UNL     1      37.080  49.535   3.684  1.00  0.00     0.293 HD
ENDBRANCH  15  18
BRANCH  17  20
ATOM     20  O   UNL     1      38.860  48.695   5.517  1.00  0.00    -0.504 OA
ATOM     21  H   UNL     1      39.004  48.418   6.478  1.00  0.00     0.293 HD
ENDBRANCH  17  20
ENDBRANCH   1  12
BRANCH   6  22
ATOM     22  O   UNL     1      45.862  42.339   4.288  1.00  0.00    -0.507 OA
ATOM     23  H   UNL     1      46.127  43.200   4.753  1.00  0.00     0.293 HD
ENDBRANCH   6  22
BRANCH   8  24
ATOM     24  O   UNL     1      42.485  39.200   2.860  1.00  0.00    -0.508 OA
ATOM     25  H   UNL     1      41.520  38.894   2.889  1.00  0.00     0.293 HD
ENDBRANCH   8  24
TORSDOF 5
ENDMDL
MODEL 6
REMARK VINA RESULT:    -5.881      0.648      1.466
REMARK INTER + INTRA:          -7.179
REMARK INTER:                  -6.914
REMARK INTRA:                  -0.264
REMARK UNBOUND:                -0.266
REMARK SMILES O=c1cc(-c2ccc(O)c(O)c2)oc2cc(O)cc(O)c12
REMARK SMILES IDX 4 1 3 2 2 3 1 4 21 5 19 6 18 7 16 8 15 9 14 10 13 11 5 12
REMARK SMILES IDX 6 13 7 14 8 15 12 16 10 17 9 18 11 20 20 22 17 24
REMARK H PARENT 9 19 11 21 20 23 17 25
REMARK Flexibility Score: inf
ROOT
ATOM      1  C   UNL     1      42.043  44.147   4.133  1.00  0.00     0.138 A 
ATOM      2  C   UNL     1      43.339  44.075   3.595  1.00  0.00     0.100 A 
ATOM      3  C   UNL     1      44.129  42.955   3.859  1.00  0.00     0.197 A 
ATOM      4  O   UNL     1      45.291  42.900   3.373  1.00  0.00    -0.289 OA
ATOM      5  C   UNL     1      43.620  41.916   4.664  1.00  0.00     0.107 A 
ATOM      6  C   UNL     1      44.354  40.749   4.979  1.00  0.00     0.134 A 
ATOM      7  C   UNL     1      43.777  39.763   5.792  1.00  0.00     0.093 A 
ATOM      8  C   UNL     1      42.483  39.922   6.296  1.00  0.00     0.123 A 
ATOM      9  C   UNL     1      41.752  41.074   5.986  1.00  0.00     0.094 A 
ATOM     10  C   UNL     1      42.310  42.068   5.177  1.00  0.00     0.146 A 
ATOM     11  O   UNL     1      41.595  43.154   4.898  1.00  0.00    -0.456 OA
ENDROOT
BRANCH   1  12
ATOM     12  C   UNL     1      41.157  45.313   3.887  1.00  0.00     0.021 A 
ATOM     13  C   UNL     1      40.988  46.276   4.893  1.00  0.00     0.016 A 
ATOM     14  C   UNL     1      40.155  47.378   4.689  1.00  0.00     0.051 A 
ATOM     15  C   UNL     1      39.467  47.538   3.482  1.00  0.00     0.157 A 
ATOM     16  C   UNL     1      40.452  45.466   2.677  1.00  0.00     0.062 A 
ATOM     17  C   UNL     1      39.613  46.567   2.465  1.00  0.00     0.158 A 
BRANCH  15  18
ATOM     18  O   UNL     1      38.655  48.666   3.339  1.00  0.00    -0.504 OA
ATOM     19  H   UNL     1      37.771  48.789   3.811  1.00  0.00     0.293 HD
ENDBRANCH  15  18
BRANCH  17  20
ATOM     20  O   UNL     1      38.946  46.651   1.241  1.00  0.00    -0.504 OA
ATOM     21  H   UNL     1      39.321  46.309   0.369  1.00  0.00     0.293 HD
ENDBRANCH  17  20
ENDBRANCH   1  12
BRANCH   6  22
ATOM     22  O   UNL     1      45.649  40.562   4.492  1.00  0.00    -0.507 OA
ATOM     23  H   UNL     1      46.049  39.637   4.381  1.00  0.00     0.293 HD
ENDBRANCH   6  22
BRANCH   8  24
ATOM     24  O   UNL     1      41.933  38.927   7.101  1.00  0.00    -0.508 OA
ATOM     25  H   UNL     1      42.307  38.721   8.019  1.00  0.00     0.293 HD
ENDBRANCH   8  24
TORSDOF 5
ENDMDL
MODEL 7
REMARK VINA RESULT:    -5.772      2.614      8.381
REMARK INTER + INTRA:          -7.051
REMARK INTER:                  -6.780
REMARK INTRA:                  -0.270
REMARK UNBOUND:                -0.266
REMARK SMILES O=c1cc(-c2ccc(O)c(O)c2)oc2cc(O)cc(O)c12
REMARK SMILES IDX 4 1 3 2 2 3 1 4 21 5 19 6 18 7 16 8 15 9 14 10 13 11 5 12
REMARK SMILES IDX 6 13 7 14 8 15 12 16 10 17 9 18 11 20 20 22 17 24
REMARK H PARENT 9 19 11 21 20 23 17 25
REMARK Flexibility Score: inf
ROOT
ATOM      1  C   UNL     1      40.100  46.467   3.317  1.00  0.00     0.138 A 
ATOM      2  C   UNL     1      39.707  47.095   4.510  1.00  0.00     0.100 A 
ATOM      3  C   UNL     1      38.792  48.148   4.461  1.00  0.00     0.197 A 
ATOM      4  O   UNL     1      38.446  48.707   5.537  1.00  0.00    -0.289 OA
ATOM      5  C   UNL     1      38.280  48.569   3.217  1.00  0.00     0.107 A 
ATOM      6  C   UNL     1      37.350  49.626   3.079  1.00  0.00     0.134 A 
ATOM      7  C   UNL     1      36.893  49.988   1.804  1.00  0.00     0.093 A 
ATOM      8  C   UNL     1      37.346  49.315   0.666  1.00  0.00     0.123 A 
ATOM      9  C   UNL     1      38.265  48.268   0.797  1.00  0.00     0.094 A 
ATOM     10  C   UNL     1      38.733  47.892   2.060  1.00  0.00     0.146 A 
ATOM     11  O   UNL     1      39.606  46.894   2.157  1.00  0.00    -0.456 OA
ENDROOT
BRANCH   1  12
ATOM     12  C   UNL     1      41.070  45.342   3.308  1.00  0.00     0.021 A 
ATOM     13  C   UNL     1      42.418  45.591   3.609  1.00  0.00     0.016 A 
ATOM     14  C   UNL     1      43.350  44.552   3.600  1.00  0.00     0.051 A 
ATOM     15  C   UNL     1      42.962  43.247   3.283  1.00  0.00     0.157 A 
ATOM     16  C   UNL     1      40.681  44.031   2.973  1.00  0.00     0.062 A 
ATOM     17  C   UNL     1      41.611  42.983   2.959  1.00  0.00     0.158 A 
BRANCH  15  18
ATOM     18  O   UNL     1      43.943  42.252   3.299  1.00  0.00    -0.504 OA
ATOM     19  H   UNL     1      44.791  42.286   2.752  1.00  0.00     0.293 HD
ENDBRANCH  15  18
BRANCH  17  20
ATOM     20  O   UNL     1      41.153  41.710   2.617  1.00  0.00    -0.504 OA
ATOM     21  H   UNL     1      41.271  41.293   1.705  1.00  0.00     0.293 HD
ENDBRANCH  17  20
ENDBRANCH   1  12
BRANCH   6  22
ATOM     22  O   UNL     1      36.879  50.318   4.197  1.00  0.00    -0.507 OA
ATOM     23  H   UNL     1      37.186  51.261   4.408  1.00  0.00     0.293 HD
ENDBRANCH   6  22
BRANCH   8  24
ATOM     24  O   UNL     1      36.876  49.693  -0.589  1.00  0.00    -0.508 OA
ATOM     25  H   UNL     1      37.183  49.225  -1.433  1.00  0.00     0.293 HD
ENDBRANCH   8  24
TORSDOF 5
ENDMDL
MODEL 8
REMARK VINA RESULT:    -5.736      2.452      7.896
REMARK INTER + INTRA:          -7.008
REMARK INTER:                  -6.739
REMARK INTRA:                  -0.269
REMARK UNBOUND:                -0.266
REMARK SMILES O=c1cc(-c2ccc(O)c(O)c2)oc2cc(O)cc(O)c12
REMARK SMILES IDX 4 1 3 2 2 3 1 4 21 5 19 6 18 7 16 8 15 9 14 10 13 11 5 12
REMARK SMILES IDX 6 13 7 14 8 15 12 16 10 17 9 18 11 20 20 22 17 24
REMARK H PARENT 9 19 11 21 20 23 17 25
REMARK Flexibility Score: inf
ROOT
ATOM      1  C   UNL     1      39.886  46.254   3.275  1.00  0.00     0.138 A 
ATOM      2  C   UNL     1      39.428  46.797   2.063  1.00  0.00     0.100 A 
ATOM      3  C   UNL     1      38.595  47.916   2.085  1.00  0.00     0.197 A 
ATOM      4  O   UNL     1      38.187  48.396   0.992  1.00  0.00    -0.289 OA
ATOM      5  C   UNL     1      38.222  48.483   3.320  1.00  0.00     0.107 A 
ATOM      6  C   UNL     1      37.383  49.617   3.431  1.00  0.00     0.134 A 
ATOM      7  C   UNL     1      37.054  50.117   4.698  1.00  0.00     0.093 A 
ATOM      8  C   UNL     1      37.545  49.507   5.856  1.00  0.00     0.123 A 
ATOM      9  C   UNL     1      38.376  48.386   5.752  1.00  0.00     0.094 A 
ATOM     10  C   UNL     1      38.716  47.873   4.497  1.00  0.00     0.146 A 
ATOM     11  O   UNL     1      39.508  46.807   4.425  1.00  0.00    -0.456 OA
ENDROOT
BRANCH   1  12
ATOM     12  C   UNL     1      40.774  45.064   3.313  1.00  0.00     0.021 A 
ATOM     13  C   UNL     1      40.250  43.802   2.995  1.00  0.00     0.016 A 
ATOM     14  C   UNL     1      41.062  42.667   3.030  1.00  0.00     0.051 A 
ATOM     15  C   UNL     1      42.409  42.763   3.392  1.00  0.00     0.157 A 
ATOM     16  C   UNL     1      42.126  45.160   3.693  1.00  0.00     0.062 A 
ATOM     17  C   UNL     1      42.948  44.026   3.733  1.00  0.00     0.158 A 
BRANCH  15  18
ATOM     18  O   UNL     1      43.168  41.591   3.401  1.00  0.00    -0.504 OA
ATOM     19  H   UNL     1      44.169  41.567   3.531  1.00  0.00     0.293 HD
ENDBRANCH  15  18
BRANCH  17  20
ATOM     20  O   UNL     1      44.278  44.198   4.120  1.00  0.00    -0.504 OA
ATOM     21  H   UNL     1      44.864  43.456   4.474  1.00  0.00     0.293 HD
ENDBRANCH  17  20
ENDBRANCH   1  12
BRANCH   6  22
ATOM     22  O   UNL     1      36.875  50.248   2.293  1.00  0.00    -0.507 OA
ATOM     23  H   UNL     1      36.990  49.850   1.367  1.00  0.00     0.293 HD
ENDBRANCH   6  22
BRANCH   8  24
ATOM     24  O   UNL     1      37.204  50.024   7.103  1.00  0.00    -0.508 OA
ATOM     25  H   UNL     1      37.062  51.016   7.245  1.00  0.00     0.293 HD
ENDBRANCH   8  24
TORSDOF 5
ENDMDL
MODEL 9
REMARK VINA RESULT:    -5.608     13.535     14.998
REMARK INTER + INTRA:          -6.858
REMARK INTER:                  -6.540
REMARK INTRA:                  -0.318
REMARK UNBOUND:                -0.266
REMARK SMILES O=c1cc(-c2ccc(O)c(O)c2)oc2cc(O)cc(O)c12
REMARK SMILES IDX 4 1 3 2 2 3 1 4 21 5 19 6 18 7 16 8 15 9 14 10 13 11 5 12
REMARK SMILES IDX 6 13 7 14 8 15 12 16 10 17 9 18 11 20 20 22 17 24
REMARK H PARENT 9 19 11 21 20 23 17 25
REMARK Flexibility Score: inf
ROOT
ATOM      1  C   UNL     1      46.066  53.937  13.785  1.00  0.00     0.138 A 
ATOM      2  C   UNL     1      47.414  54.306  13.922  1.00  0.00     0.100 A 
ATOM      3  C   UNL     1      48.121  53.913  15.060  1.00  0.00     0.197 A 
ATOM      4  O   UNL     1      49.330  54.250  15.175  1.00  0.00    -0.289 OA
ATOM      5  C   UNL     1      47.471  53.155  16.055  1.00  0.00     0.107 A 
ATOM      6  C   UNL     1      48.114  52.715  17.237  1.00  0.00     0.134 A 
ATOM      7  C   UNL     1      47.396  51.970  18.182  1.00  0.00     0.093 A 
ATOM      8  C   UNL     1      46.051  51.656  17.971  1.00  0.00     0.123 A 
ATOM      9  C   UNL     1      45.411  52.087  16.803  1.00  0.00     0.094 A 
ATOM     10  C   UNL     1      46.110  52.831  15.848  1.00  0.00     0.146 A 
ATOM     11  O   UNL     1      45.479  53.229  14.748  1.00  0.00    -0.456 OA
ENDROOT
BRANCH   1  12
ATOM     12  C   UNL     1      45.264  54.327  12.597  1.00  0.00     0.021 A 
ATOM     13  C   UNL     1      45.824  55.186  11.639  1.00  0.00     0.016 A 
ATOM     14  C   UNL     1      45.089  55.574  10.518  1.00  0.00     0.051 A 
ATOM     15  C   UNL     1      43.779  55.122  10.331  1.00  0.00     0.157 A 
ATOM     16  C   UNL     1      43.940  53.884  12.419  1.00  0.00     0.062 A 
ATOM     17  C   UNL     1      43.194  54.270  11.297  1.00  0.00     0.158 A 
BRANCH  15  18
ATOM     18  O   UNL     1      43.100  55.541   9.185  1.00  0.00    -0.504 OA
ATOM     19  H   UNL     1      42.862  56.503   8.989  1.00  0.00     0.293 HD
ENDBRANCH  15  18
BRANCH  17  20
ATOM     20  O   UNL     1      41.887  53.792  11.188  1.00  0.00    -0.504 OA
ATOM     21  H   UNL     1      41.153  54.000  11.849  1.00  0.00     0.293 HD
ENDBRANCH  17  20
ENDBRANCH   1  12
BRANCH   6  22
ATOM     22  O   UNL     1      49.456  53.014  17.477  1.00  0.00    -0.507 OA
ATOM     23  H   UNL     1      49.733  53.826  18.018  1.00  0.00     0.293 HD
ENDBRANCH   6  22
BRANCH   8  24
ATOM     24  O   UNL     1      45.360  50.913  18.925  1.00  0.00    -0.508 OA
ATOM     25  H   UNL     1      45.790  50.129  19.400  1.00  0.00     0.293 HD
ENDBRANCH   8  24
TORSDOF 5
ENDMDL
