MODEL 1
REMARK VINA RESULT:    -4.757      0.000      0.000
REMARK INTER + INTRA:         -11.318
REMARK INTER:                  -9.207
REMARK INTRA:                  -2.111
REMARK UNBOUND:                -2.111
REMARK SMILES CCCCCCCCCCCCCCCCCC(=O)[O-]
REMARK SMILES IDX 10 1 11 2 12 3 13 4 14 5 15 6 16 7 17 8 18 9 19 10 20 11
REMARK SMILES IDX 9 12 8 13 7 14 6 15 5 16 4 17 3 18 2 19 1 20
REMARK H PARENT
REMARK Flexibility Score: inf
ROOT
ATOM      1  C   UNL     1      49.719  24.933  17.467  1.00  0.00     0.000 C 
ENDROOT
BRANCH   1   2
ATOM      2  C   UNL     1      48.521  25.608  16.789  1.00  0.00     0.000 C 
BRANCH   2   3
ATOM      3  C   UNL     1      48.968  26.444  15.583  1.00  0.00     0.000 C 
BRANCH   3   4
ATOM      4  C   UNL     1      50.497  26.594  15.556  1.00  0.00     0.000 C 
BRANCH   4   5
ATOM      5  C   UNL     1      50.944  28.065  15.498  1.00  0.00     0.000 C 
BRANCH   5   6
ATOM      6  C   UNL     1      50.380  28.895  16.664  1.00  0.00     0.000 C 
BRANCH   6   7
ATOM      7  C   UNL     1      49.592  30.126  16.186  1.00  0.00     0.006 C 
BRANCH   7   8
ATOM      8  C   UNL     1      48.197  30.222  16.821  1.00  0.00     0.053 C 
BRANCH   8   9
ATOM      9  C   UNL     1      48.097  31.444  17.677  1.00  0.00     0.041 C 
ATOM     10  O   UNL     1      47.510  31.393  18.790  1.00  0.00    -0.550 OA
ATOM     11  O   UNL     1      48.695  32.631  17.270  1.00  0.00    -0.550 OA
ENDBRANCH   8   9
ENDBRANCH   7   8
ENDBRANCH   6   7
ENDBRANCH   5   6
ENDBRANCH   4   5
ENDBRANCH   3   4
ENDBRANCH   2   3
ENDBRANCH   1   2
BRANCH   1  12
ATOM     12  C   UNL     1      49.534  24.886  18.992  1.00  0.00     0.000 C 
BRANCH  12  13
ATOM     13  C   UNL     1      48.517  25.921  19.498  1.00  0.00    -0.000 C 
BRANCH  13  14
ATOM     14  C   UNL     1      48.110  25.679  20.962  1.00  0.00    -0.000 C 
BRANCH  14  15
ATOM     15  C   UNL     1      48.226  26.946  21.826  1.00  0.00    -0.000 C 
BRANCH  15  16
ATOM     16  C   UNL     1      49.532  26.996  22.639  1.00  0.00    -0.000 C 
BRANCH  16  17
ATOM     17  C   UNL     1      50.240  25.625  22.687  1.00  0.00    -0.000 C 
BRANCH  17  18
ATOM     18  C   UNL     1      51.724  25.682  22.274  1.00  0.00    -0.000 C 
BRANCH  18  19
ATOM     19  C   UNL     1      52.153  27.001  21.609  1.00  0.00    -0.003 C 
ATOM     20  C   UNL     1      52.528  26.826  20.136  1.00  0.00     0.004 C 
ENDBRANCH  18  19
ENDBRANCH  17  18
ENDBRANCH  16  17
ENDBRANCH  15  16
ENDBRANCH  14  15
ENDBRANCH  13  14
ENDBRANCH  12  13
ENDBRANCH   1  12
TORSDOF 16
ENDMDL
MODEL 2
REMARK VINA RESULT:    -4.700      7.852     12.572
REMARK INTER + INTRA:         -11.208
REMARK INTER:                  -9.997
REMARK INTRA:                  -1.211
REMARK UNBOUND:                -2.111
REMARK SMILES CCCCCCCCCCCCCCCCCC(=O)[O-]
REMARK SMILES IDX 10 1 11 2 12 3 13 4 14 5 15 6 16 7 17 8 18 9 19 10 20 11
REMARK SMILES IDX 9 12 8 13 7 14 6 15 5 16 4 17 3 18 2 19 1 20
REMARK H PARENT
REMARK Flexibility Score: inf
ROOT
ATOM      1  C   UNL     1      45.210  35.383  12.908  1.00  0.00     0.000 C 
ENDROOT
BRANCH   1   2
ATOM      2  C   UNL     1      46.641  35.658  12.433  1.00  0.00     0.000 C 
BRANCH   2   3
ATOM      3  C   UNL     1      47.508  34.397  12.535  1.00  0.00     0.000 C 
BRANCH   3   4
ATOM      4  C   UNL     1      48.500  34.505  13.703  1.00  0.00     0.000 C 
BRANCH   4   5
ATOM      5  C   UNL     1      48.315  33.384  14.740  1.00  0.00     0.000 C 
BRANCH   5   6
ATOM      6  C   UNL     1      48.012  33.931  16.146  1.00  0.00     0.000 C 
BRANCH   6   7
ATOM      7  C   UNL     1      48.947  33.351  17.220  1.00  0.00     0.006 C 
BRANCH   7   8
ATOM      8  C   UNL     1      49.173  31.841  17.058  1.00  0.00     0.053 C 
BRANCH   8   9
ATOM      9  C   UNL     1      47.958  31.083  17.488  1.00  0.00     0.041 C 
ATOM     10  O   UNL     1      47.394  30.286  16.693  1.00  0.00    -0.550 OA
ATOM     11  O   UNL     1      47.474  31.218  18.783  1.00  0.00    -0.550 OA
ENDBRANCH   8   9
ENDBRANCH   7   8
ENDBRANCH   6   7
ENDBRANCH   5   6
ENDBRANCH   4   5
ENDBRANCH   3   4
ENDBRANCH   2   3
ENDBRANCH   1   2
BRANCH   1  12
ATOM     12  C   UNL     1      44.290  36.576  12.604  1.00  0.00     0.000 C 
BRANCH  12  13
ATOM     13  C   UNL     1      42.933  36.147  12.024  1.00  0.00    -0.000 C 
BRANCH  13  14
ATOM     14  C   UNL     1      42.443  37.091  10.912  1.00  0.00    -0.000 C 
BRANCH  14  15
ATOM     15  C   UNL     1      42.139  38.507  11.429  1.00  0.00    -0.000 C 
BRANCH  15  16
ATOM     16  C   UNL     1      41.042  38.524  12.508  1.00  0.00    -0.000 C 
BRANCH  16  17
ATOM     17  C   UNL     1      39.666  38.106  11.947  1.00  0.00    -0.000 C 
BRANCH  17  18
ATOM     18  C   UNL     1      39.129  36.791  12.545  1.00  0.00    -0.000 C 
BRANCH  18  19
ATOM     19  C   UNL     1      38.970  35.645  11.531  1.00  0.00    -0.003 C 
ATOM     20  C   UNL     1      39.408  34.292  12.094  1.00  0.00     0.004 C 
ENDBRANCH  18  19
ENDBRANCH  17  18
ENDBRANCH  16  17
ENDBRANCH  15  16
ENDBRANCH  14  15
ENDBRANCH  13  14
ENDBRANCH  12  13
ENDBRANCH   1  12
TORSDOF 16
ENDMDL
MODEL 3
REMARK VINA RESULT:    -4.647      8.534     13.245
REMARK INTER + INTRA:         -11.105
REMARK INTER:                  -9.496
REMARK INTRA:                  -1.609
REMARK UNBOUND:                -2.111
REMARK SMILES CCCCCCCCCCCCCCCCCC(=O)[O-]
REMARK SMILES IDX 10 1 11 2 12 3 13 4 14 5 15 6 16 7 17 8 18 9 19 10 20 11
REMARK SMILES IDX 9 12 8 13 7 14 6 15 5 16 4 17 3 18 2 19 1 20
REMARK H PARENT
REMARK Flexibility Score: inf
ROOT
ATOM      1  C   UNL     1      43.946  36.585  12.521  1.00  0.00     0.000 C 
ENDROOT
BRANCH   1   2
ATOM      2  C   UNL     1      44.884  35.414  12.833  1.00  0.00     0.000 C 
BRANCH   2   3
ATOM      3  C   UNL     1      46.345  35.788  12.556  1.00  0.00     0.000 C 
BRANCH   3   4
ATOM      4  C   UNL     1      47.162  34.550  12.156  1.00  0.00     0.000 C 
BRANCH   4   5
ATOM      5  C   UNL     1      48.454  34.404  12.979  1.00  0.00     0.000 C 
BRANCH   5   6
ATOM      6  C   UNL     1      48.812  32.933  13.252  1.00  0.00     0.000 C 
BRANCH   6   7
ATOM      7  C   UNL     1      48.436  32.487  14.674  1.00  0.00     0.006 C 
BRANCH   7   8
ATOM      8  C   UNL     1      47.887  33.635  15.532  1.00  0.00     0.053 C 
BRANCH   8   9
ATOM      9  C   UNL     1      48.369  33.508  16.943  1.00  0.00     0.041 C 
ATOM     10  O   UNL     1      49.175  34.352  17.415  1.00  0.00    -0.550 OA
ATOM     11  O   UNL     1      47.890  32.487  17.753  1.00  0.00    -0.550 OA
ENDBRANCH   8   9
ENDBRANCH   7   8
ENDBRANCH   6   7
ENDBRANCH   5   6
ENDBRANCH   4   5
ENDBRANCH   3   4
ENDBRANCH   2   3
ENDBRANCH   1   2
BRANCH   1  12
ATOM     12  C   UNL     1      42.847  36.163  11.533  1.00  0.00     0.000 C 
BRANCH  12  13
ATOM     13  C   UNL     1      42.358  37.326  10.655  1.00  0.00    -0.000 C 
BRANCH  13  14
ATOM     14  C   UNL     1      42.983  38.672  11.061  1.00  0.00    -0.000 C 
BRANCH  14  15
ATOM     15  C   UNL     1      42.006  39.849  10.906  1.00  0.00    -0.000 C 
BRANCH  15  16
ATOM     16  C   UNL     1      40.532  39.419  11.014  1.00  0.00    -0.000 C 
BRANCH  16  17
ATOM     17  C   UNL     1      40.016  39.472  12.468  1.00  0.00    -0.000 C 
BRANCH  17  18
ATOM     18  C   UNL     1      39.063  38.315  12.827  1.00  0.00    -0.000 C 
BRANCH  18  19
ATOM     19  C   UNL     1      39.739  37.121  13.521  1.00  0.00    -0.003 C 
ATOM     20  C   UNL     1      40.949  37.532  14.362  1.00  0.00     0.004 C 
ENDBRANCH  18  19
ENDBRANCH  17  18
ENDBRANCH  16  17
ENDBRANCH  15  16
ENDBRANCH  14  15
ENDBRANCH  13  14
ENDBRANCH  12  13
ENDBRANCH   1  12
TORSDOF 16
ENDMDL
MODEL 4
REMARK VINA RESULT:    -4.645      2.480      6.394
REMARK INTER + INTRA:         -11.100
REMARK INTER:                  -9.361
REMARK INTRA:                  -1.739
REMARK UNBOUND:                -2.111
REMARK SMILES CCCCCCCCCCCCCCCCCC(=O)[O-]
REMARK SMILES IDX 10 1 11 2 12 3 13 4 14 5 15 6 16 7 17 8 18 9 19 10 20 11
REMARK SMILES IDX 9 12 8 13 7 14 6 15 5 16 4 17 3 18 2 19 1 20
REMARK H PARENT
REMARK Flexibility Score: inf
ROOT
ATOM      1  C   UNL     1      49.464  25.018  18.896  1.00  0.00     0.000 C 
ENDROOT
BRANCH   1   2
ATOM      2  C   UNL     1      48.363  25.881  19.521  1.00  0.00     0.000 C 
BRANCH   2   3
ATOM      3  C   UNL     1      48.133  25.504  20.990  1.00  0.00     0.000 C 
BRANCH   3   4
ATOM      4  C   UNL     1      48.161  26.750  21.888  1.00  0.00     0.000 C 
BRANCH   4   5
ATOM      5  C   UNL     1      49.507  26.925  22.613  1.00  0.00     0.000 C 
BRANCH   5   6
ATOM      6  C   UNL     1      50.254  25.592  22.790  1.00  0.00     0.000 C 
BRANCH   6   7
ATOM      7  C   UNL     1      51.641  25.600  22.126  1.00  0.00     0.006 C 
BRANCH   7   8
ATOM      8  C   UNL     1      51.990  26.954  21.493  1.00  0.00     0.053 C 
BRANCH   8   9
ATOM      9  C   UNL     1      52.724  26.753  20.205  1.00  0.00     0.041 C 
ATOM     10  O   UNL     1      53.762  26.042  20.172  1.00  0.00    -0.550 OA
ATOM     11  O   UNL     1      52.236  27.311  19.031  1.00  0.00    -0.550 OA
ENDBRANCH   8   9
ENDBRANCH   7   8
ENDBRANCH   6   7
ENDBRANCH   5   6
ENDBRANCH   4   5
ENDBRANCH   3   4
ENDBRANCH   2   3
ENDBRANCH   1   2
BRANCH   1  12
ATOM     12  C   UNL     1      49.691  25.397  17.424  1.00  0.00     0.000 C 
BRANCH  12  13
ATOM     13  C   UNL     1      48.377  25.605  16.654  1.00  0.00    -0.000 C 
BRANCH  13  14
ATOM     14  C   UNL     1      48.356  26.929  15.872  1.00  0.00    -0.000 C 
BRANCH  14  15
ATOM     15  C   UNL     1      49.147  28.045  16.576  1.00  0.00    -0.000 C 
BRANCH  15  16
ATOM     16  C   UNL     1      48.250  28.975  17.412  1.00  0.00    -0.000 C 
BRANCH  16  17
ATOM     17  C   UNL     1      47.962  30.310  16.691  1.00  0.00    -0.000 C 
BRANCH  17  18
ATOM     18  C   UNL     1      47.934  31.528  17.634  1.00  0.00    -0.000 C 
BRANCH  18  19
ATOM     19  C   UNL     1      49.204  32.395  17.597  1.00  0.00    -0.003 C 
ATOM     20  C   UNL     1      48.919  33.844  17.197  1.00  0.00     0.004 C 
ENDBRANCH  18  19
ENDBRANCH  17  18
ENDBRANCH  16  17
ENDBRANCH  15  16
ENDBRANCH  14  15
ENDBRANCH  13  14
ENDBRANCH  12  13
ENDBRANCH   1  12
TORSDOF 16
ENDMDL
MODEL 5
REMARK VINA RESULT:    -4.640     13.880     16.971
REMARK INTER + INTRA:         -11.091
REMARK INTER:                  -8.594
REMARK INTRA:                  -2.498
REMARK UNBOUND:                -2.111
REMARK SMILES CCCCCCCCCCCCCCCCCC(=O)[O-]
REMARK SMILES IDX 10 1 11 2 12 3 13 4 14 5 15 6 16 7 17 8 18 9 19 10 20 11
REMARK SMILES IDX 9 12 8 13 7 14 6 15 5 16 4 17 3 18 2 19 1 20
REMARK H PARENT
REMARK Flexibility Score: inf
ROOT
ATOM      1  C   UNL     1      42.437  39.305  22.236  1.00  0.00     0.000 C 
ENDROOT
BRANCH   1   2
ATOM      2  C   UNL     1      41.190  39.238  21.347  1.00  0.00     0.000 C 
BRANCH   2   3
ATOM      3  C   UNL     1      40.199  40.354  21.701  1.00  0.00     0.000 C 
BRANCH   3   4
ATOM      4  C   UNL     1      40.839  41.376  22.652  1.00  0.00     0.000 C 
BRANCH   4   5
ATOM      5  C   UNL     1      39.869  42.503  23.048  1.00  0.00     0.000 C 
BRANCH   5   6
ATOM      6  C   UNL     1      40.227  43.134  24.405  1.00  0.00     0.000 C 
BRANCH   6   7
ATOM      7  C   UNL     1      41.536  42.579  24.988  1.00  0.00     0.006 C 
BRANCH   7   8
ATOM      8  C   UNL     1      41.646  42.787  26.505  1.00  0.00     0.053 C 
BRANCH   8   9
ATOM      9  C   UNL     1      42.843  43.621  26.832  1.00  0.00     0.041 C 
ATOM     10  O   UNL     1      43.292  44.443  25.990  1.00  0.00    -0.550 OA
ATOM     11  O   UNL     1      43.437  43.528  28.085  1.00  0.00    -0.550 OA
ENDBRANCH   8   9
ENDBRANCH   7   8
ENDBRANCH   6   7
ENDBRANCH   5   6
ENDBRANCH   4   5
ENDBRANCH   3   4
ENDBRANCH   2   3
ENDBRANCH   1   2
BRANCH   1  12
ATOM     12  C   UNL     1      42.865  37.901  22.691  1.00  0.00     0.000 C 
BRANCH  12  13
ATOM     13  C   UNL     1      41.697  36.901  22.709  1.00  0.00    -0.000 C 
BRANCH  13  14
ATOM     14  C   UNL     1      40.937  36.909  24.047  1.00  0.00    -0.000 C 
BRANCH  14  15
ATOM     15  C   UNL     1      39.611  36.133  23.978  1.00  0.00    -0.000 C 
BRANCH  15  16
ATOM     16  C   UNL     1      38.568  36.814  23.075  1.00  0.00    -0.000 C 
BRANCH  16  17
ATOM     17  C   UNL     1      37.520  37.604  23.888  1.00  0.00    -0.000 C 
BRANCH  17  18
ATOM     18  C   UNL     1      37.502  39.112  23.573  1.00  0.00    -0.000 C 
BRANCH  18  19
ATOM     19  C   UNL     1      37.608  40.025  24.806  1.00  0.00    -0.003 C 
ATOM     20  C   UNL     1      38.930  39.856  25.556  1.00  0.00     0.004 C 
ENDBRANCH  18  19
ENDBRANCH  17  18
ENDBRANCH  16  17
ENDBRANCH  15  16
ENDBRANCH  14  15
ENDBRANCH  13  14
ENDBRANCH  12  13
ENDBRANCH   1  12
TORSDOF 16
ENDMDL
MODEL 6
REMARK VINA RESULT:    -4.621      1.051      2.036
REMARK INTER + INTRA:         -11.054
REMARK INTER:                  -8.908
REMARK INTRA:                  -2.146
REMARK UNBOUND:                -2.111
REMARK SMILES CCCCCCCCCCCCCCCCCC(=O)[O-]
REMARK SMILES IDX 10 1 11 2 12 3 13 4 14 5 15 6 16 7 17 8 18 9 19 10 20 11
REMARK SMILES IDX 9 12 8 13 7 14 6 15 5 16 4 17 3 18 2 19 1 20
REMARK H PARENT
REMARK Flexibility Score: inf
ROOT
ATOM      1  C   UNL     1      48.480  26.170  19.317  1.00  0.00     0.000 C 
ENDROOT
BRANCH   1   2
ATOM      2  C   UNL     1      48.994  25.220  18.230  1.00  0.00     0.000 C 
BRANCH   2   3
ATOM      3  C   UNL     1      48.542  25.678  16.838  1.00  0.00     0.000 C 
BRANCH   3   4
ATOM      4  C   UNL     1      49.721  26.255  16.039  1.00  0.00     0.000 C 
BRANCH   4   5
ATOM      5  C   UNL     1      49.580  27.766  15.786  1.00  0.00     0.000 C 
BRANCH   5   6
ATOM      6  C   UNL     1      48.141  28.265  16.007  1.00  0.00     0.000 C 
BRANCH   6   7
ATOM      7  C   UNL     1      48.070  29.455  16.977  1.00  0.00     0.006 C 
BRANCH   7   8
ATOM      8  C   UNL     1      49.272  30.401  16.845  1.00  0.00     0.053 C 
BRANCH   8   9
ATOM      9  C   UNL     1      48.990  31.700  17.532  1.00  0.00     0.041 C 
ATOM     10  O   UNL     1      47.830  31.959  17.948  1.00  0.00    -0.550 OA
ATOM     11  O   UNL     1      50.018  32.606  17.757  1.00  0.00    -0.550 OA
ENDBRANCH   8   9
ENDBRANCH   7   8
ENDBRANCH   6   7
ENDBRANCH   5   6
ENDBRANCH   4   5
ENDBRANCH   3   4
ENDBRANCH   2   3
ENDBRANCH   1   2
BRANCH   1  12
ATOM     12  C   UNL     1      48.590  25.526  20.708  1.00  0.00     0.000 C 
BRANCH  12  13
ATOM     13  C   UNL     1      48.129  26.465  21.835  1.00  0.00    -0.000 C 
BRANCH  13  14
ATOM     14  C   UNL     1      49.306  27.155  22.545  1.00  0.00    -0.000 C 
BRANCH  14  15
ATOM     15  C   UNL     1      50.585  26.301  22.536  1.00  0.00    -0.000 C 
BRANCH  15  16
ATOM     16  C   UNL     1      51.855  27.131  22.278  1.00  0.00    -0.000 C 
BRANCH  16  17
ATOM     17  C   UNL     1      52.818  26.432  21.295  1.00  0.00    -0.000 C 
BRANCH  17  18
ATOM     18  C   UNL     1      52.160  26.044  19.956  1.00  0.00    -0.000 C 
BRANCH  18  19
ATOM     19  C   UNL     1      52.220  27.136  18.874  1.00  0.00    -0.003 C 
ATOM     20  C   UNL     1      53.388  28.103  19.073  1.00  0.00     0.004 C 
ENDBRANCH  18  19
ENDBRANCH  17  18
ENDBRANCH  16  17
ENDBRANCH  15  16
ENDBRANCH  14  15
ENDBRANCH  13  14
ENDBRANCH  12  13
ENDBRANCH   1  12
TORSDOF 16
ENDMDL
MODEL 7
REMARK VINA RESULT:    -4.553      1.396      3.321
REMARK INTER + INTRA:         -10.923
REMARK INTER:                  -8.503
REMARK INTRA:                  -2.420
REMARK UNBOUND:                -2.111
REMARK SMILES CCCCCCCCCCCCCCCCCC(=O)[O-]
REMARK SMILES IDX 10 1 11 2 12 3 13 4 14 5 15 6 16 7 17 8 18 9 19 10 20 11
REMARK SMILES IDX 9 12 8 13 7 14 6 15 5 16 4 17 3 18 2 19 1 20
REMARK H PARENT
REMARK Flexibility Score: inf
ROOT
ATOM      1  C   UNL     1      48.614  25.746  21.200  1.00  0.00     0.000 C 
ENDROOT
BRANCH   1   2
ATOM      2  C   UNL     1      49.189  25.175  19.899  1.00  0.00     0.000 C 
BRANCH   2   3
ATOM      3  C   UNL     1      48.342  25.592  18.691  1.00  0.00     0.000 C 
BRANCH   3   4
ATOM      4  C   UNL     1      49.041  25.218  17.374  1.00  0.00     0.000 C 
BRANCH   4   5
ATOM      5  C   UNL     1      48.948  26.335  16.320  1.00  0.00     0.000 C 
BRANCH   5   6
ATOM      6  C   UNL     1      48.903  27.736  16.953  1.00  0.00     0.000 C 
BRANCH   6   7
ATOM      7  C   UNL     1      49.526  28.814  16.050  1.00  0.00     0.006 C 
BRANCH   7   8
ATOM      8  C   UNL     1      49.466  30.216  16.670  1.00  0.00     0.053 C 
BRANCH   8   9
ATOM      9  C   UNL     1      48.046  30.615  16.920  1.00  0.00     0.041 C 
ATOM     10  O   UNL     1      47.206  30.591  15.982  1.00  0.00    -0.550 OA
ATOM     11  O   UNL     1      47.637  30.968  18.200  1.00  0.00    -0.550 OA
ENDBRANCH   8   9
ENDBRANCH   7   8
ENDBRANCH   6   7
ENDBRANCH   5   6
ENDBRANCH   4   5
ENDBRANCH   3   4
ENDBRANCH   2   3
ENDBRANCH   1   2
BRANCH   1  12
ATOM     12  C   UNL     1      49.654  25.698  22.330  1.00  0.00     0.000 C 
BRANCH  12  13
ATOM     13  C   UNL     1      50.262  27.076  22.636  1.00  0.00    -0.000 C 
BRANCH  13  14
ATOM     14  C   UNL     1      51.791  27.096  22.466  1.00  0.00    -0.000 C 
BRANCH  14  15
ATOM     15  C   UNL     1      52.332  25.808  21.823  1.00  0.00    -0.000 C 
BRANCH  15  16
ATOM     16  C   UNL     1      53.120  26.073  20.529  1.00  0.00    -0.000 C 
BRANCH  16  17
ATOM     17  C   UNL     1      52.385  27.053  19.589  1.00  0.00    -0.000 C 
BRANCH  17  18
ATOM     18  C   UNL     1      52.340  26.586  18.122  1.00  0.00    -0.000 C 
BRANCH  18  19
ATOM     19  C   UNL     1      52.839  27.625  17.103  1.00  0.00    -0.003 C 
ATOM     20  C   UNL     1      52.936  29.032  17.693  1.00  0.00     0.004 C 
ENDBRANCH  18  19
ENDBRANCH  17  18
ENDBRANCH  16  17
ENDBRANCH  15  16
ENDBRANCH  14  15
ENDBRANCH  13  14
ENDBRANCH  12  13
ENDBRANCH   1  12
TORSDOF 16
ENDMDL
MODEL 8
REMARK VINA RESULT:    -4.539      2.622      5.876
REMARK INTER + INTRA:         -10.896
REMARK INTER:                  -8.626
REMARK INTRA:                  -2.270
REMARK UNBOUND:                -2.111
REMARK SMILES CCCCCCCCCCCCCCCCCC(=O)[O-]
REMARK SMILES IDX 10 1 11 2 12 3 13 4 14 5 15 6 16 7 17 8 18 9 19 10 20 11
REMARK SMILES IDX 9 12 8 13 7 14 6 15 5 16 4 17 3 18 2 19 1 20
REMARK H PARENT
REMARK Flexibility Score: inf
ROOT
ATOM      1  C   UNL     1      48.511  26.921  21.831  1.00  0.00     0.000 C 
ENDROOT
BRANCH   1   2
ATOM      2  C   UNL     1      49.829  26.935  22.614  1.00  0.00     0.000 C 
BRANCH   2   3
ATOM      3  C   UNL     1      50.444  25.531  22.685  1.00  0.00     0.000 C 
BRANCH   3   4
ATOM      4  C   UNL     1      51.965  25.587  22.475  1.00  0.00     0.000 C 
BRANCH   4   5
ATOM      5  C   UNL     1      52.402  26.804  21.642  1.00  0.00     0.000 C 
BRANCH   5   6
ATOM      6  C   UNL     1      52.993  26.401  20.281  1.00  0.00     0.000 C 
BRANCH   6   7
ATOM      7  C   UNL     1      52.533  27.323  19.140  1.00  0.00     0.006 C 
BRANCH   7   8
ATOM      8  C   UNL     1      53.422  28.564  18.983  1.00  0.00     0.053 C 
BRANCH   8   9
ATOM      9  C   UNL     1      54.361  28.391  17.831  1.00  0.00     0.041 C 
ATOM     10  O   UNL     1      54.130  27.520  16.951  1.00  0.00    -0.550 OA
ATOM     11  O   UNL     1      55.465  29.224  17.701  1.00  0.00    -0.550 OA
ENDBRANCH   8   9
ENDBRANCH   7   8
ENDBRANCH   6   7
ENDBRANCH   5   6
ENDBRANCH   4   5
ENDBRANCH   3   4
ENDBRANCH   2   3
ENDBRANCH   1   2
BRANCH   1  12
ATOM     12  C   UNL     1      48.291  25.562  21.148  1.00  0.00     0.000 C 
BRANCH  12  13
ATOM     13  C   UNL     1      48.368  25.649  19.615  1.00  0.00    -0.000 C 
BRANCH  13  14
ATOM     14  C   UNL     1      49.589  24.906  19.044  1.00  0.00    -0.000 C 
BRANCH  14  15
ATOM     15  C   UNL     1      49.785  25.159  17.540  1.00  0.00    -0.000 C 
BRANCH  15  16
ATOM     16  C   UNL     1      48.479  25.550  16.825  1.00  0.00    -0.000 C 
BRANCH  16  17
ATOM     17  C   UNL     1      48.608  26.889  16.068  1.00  0.00    -0.000 C 
BRANCH  17  18
ATOM     18  C   UNL     1      48.651  28.121  16.993  1.00  0.00    -0.000 C 
BRANCH  18  19
ATOM     19  C   UNL     1      49.423  29.323  16.422  1.00  0.00    -0.003 C 
ATOM     20  C   UNL     1      50.906  29.021  16.197  1.00  0.00     0.004 C 
ENDBRANCH  18  19
ENDBRANCH  17  18
ENDBRANCH  16  17
ENDBRANCH  15  16
ENDBRANCH  14  15
ENDBRANCH  13  14
ENDBRANCH  12  13
ENDBRANCH   1  12
TORSDOF 16
ENDMDL
MODEL 9
REMARK VINA RESULT:    -4.515     13.792     16.903
REMARK INTER + INTRA:         -10.849
REMARK INTER:                  -8.286
REMARK INTRA:                  -2.564
REMARK UNBOUND:                -2.111
REMARK SMILES CCCCCCCCCCCCCCCCCC(=O)[O-]
REMARK SMILES IDX 10 1 11 2 12 3 13 4 14 5 15 6 16 7 17 8 18 9 19 10 20 11
REMARK SMILES IDX 9 12 8 13 7 14 6 15 5 16 4 17 3 18 2 19 1 20
REMARK H PARENT
REMARK Flexibility Score: inf
ROOT
ATOM      1  C   UNL     1      41.741  36.983  22.580  1.00  0.00     0.000 C 
ENDROOT
BRANCH   1   2
ATOM      2  C   UNL     1      42.144  38.403  22.167  1.00  0.00     0.000 C 
BRANCH   2   3
ATOM      3  C   UNL     1      41.797  39.417  23.265  1.00  0.00     0.000 C 
BRANCH   3   4
ATOM      4  C   UNL     1      41.613  40.824  22.676  1.00  0.00     0.000 C 
BRANCH   4   5
ATOM      5  C   UNL     1      40.904  41.782  23.648  1.00  0.00     0.000 C 
BRANCH   5   6
ATOM      6  C   UNL     1      40.590  41.119  25.000  1.00  0.00     0.000 C 
BRANCH   6   7
ATOM      7  C   UNL     1      40.715  42.096  26.181  1.00  0.00     0.006 C 
BRANCH   7   8
ATOM      8  C   UNL     1      42.067  42.822  26.210  1.00  0.00     0.053 C 
BRANCH   8   9
ATOM      9  C   UNL     1      42.837  42.441  27.434  1.00  0.00     0.041 C 
ATOM     10  O   UNL     1      42.786  41.262  27.874  1.00  0.00    -0.550 OA
ATOM     11  O   UNL     1      43.651  43.374  28.064  1.00  0.00    -0.550 OA
ENDBRANCH   8   9
ENDBRANCH   7   8
ENDBRANCH   6   7
ENDBRANCH   5   6
ENDBRANCH   4   5
ENDBRANCH   3   4
ENDBRANCH   2   3
ENDBRANCH   1   2
BRANCH   1  12
ATOM     12  C   UNL     1      41.067  36.982  23.961  1.00  0.00     0.000 C 
BRANCH  12  13
ATOM     13  C   UNL     1      39.839  36.058  24.021  1.00  0.00    -0.000 C 
BRANCH  13  14
ATOM     14  C   UNL     1      38.568  36.733  23.479  1.00  0.00    -0.000 C 
BRANCH  14  15
ATOM     15  C   UNL     1      38.370  38.154  24.033  1.00  0.00    -0.000 C 
BRANCH  15  16
ATOM     16  C   UNL     1      38.030  39.179  22.937  1.00  0.00    -0.000 C 
BRANCH  16  17
ATOM     17  C   UNL     1      38.547  38.742  21.549  1.00  0.00    -0.000 C 
BRANCH  17  18
ATOM     18  C   UNL     1      38.779  39.915  20.578  1.00  0.00    -0.000 C 
BRANCH  18  19
ATOM     19  C   UNL     1      38.094  39.758  19.210  1.00  0.00    -0.003 C 
ATOM     20  C   UNL     1      37.172  40.930  18.871  1.00  0.00     0.004 C 
ENDBRANCH  18  19
ENDBRANCH  17  18
ENDBRANCH  16  17
ENDBRANCH  15  16
ENDBRANCH  14  15
ENDBRANCH  13  14
ENDBRANCH  12  13
ENDBRANCH   1  12
TORSDOF 16
ENDMDL
