MODEL 1
REMARK VINA RESULT:     6.627      0.000      0.000
REMARK INTER + INTRA:           7.663
REMARK INTER:                   7.983
REMARK INTRA:                  -0.320
REMARK UNBOUND:                -0.320
REMARK SMILES O=c1c(O)c(-c2ccc(O)c(O)c2)oc2cc(O)cc(O)c12
REMARK SMILES IDX 5 1 3 2 2 3 1 4 22 5 20 6 19 7 17 8 16 9 15 10 14 11 6 12
REMARK SMILES IDX 7 13 8 14 9 15 13 16 11 17 10 18 12 20 4 22 21 24 18 26
REMARK H PARENT 10 19 12 21 4 23 21 25 18 27
REMARK Flexibility Score: inf
ROOT
ATOM      1  C   UNL     1       8.108   6.961  29.205  1.00  0.00     0.180 A 
ATOM      2  C   UNL     1       8.747   5.926  29.915  1.00  0.00     0.208 A 
ATOM      3  C   UNL     1       8.497   5.792  31.290  1.00  0.00     0.238 A 
ATOM      4  O   UNL     1       9.071   4.875  31.939  1.00  0.00    -0.285 OA
ATOM      5  C   UNL     1       7.601   6.677  31.925  1.00  0.00     0.111 A 
ATOM      6  C   UNL     1       7.291   6.607  33.305  1.00  0.00     0.134 A 
ATOM      7  C   UNL     1       6.382   7.520  33.861  1.00  0.00     0.093 A 
ATOM      8  C   UNL     1       5.778   8.497  33.067  1.00  0.00     0.123 A 
ATOM      9  C   UNL     1       6.080   8.571  31.703  1.00  0.00     0.094 A 
ATOM     10  C   UNL     1       6.986   7.672  31.131  1.00  0.00     0.146 A 
ATOM     11  O   UNL     1       7.259   7.767  29.834  1.00  0.00    -0.452 OA
ENDROOT
BRANCH   1  12
ATOM     12  C   UNL     1       8.336   7.179  27.758  1.00  0.00     0.025 A 
ATOM     13  C   UNL     1       9.348   8.060  27.345  1.00  0.00     0.016 A 
ATOM     14  C   UNL     1       9.595   8.266  25.986  1.00  0.00     0.051 A 
ATOM     15  C   UNL     1       8.846   7.582  25.019  1.00  0.00     0.157 A 
ATOM     16  C   UNL     1       7.600   6.478  26.787  1.00  0.00     0.062 A 
ATOM     17  C   UNL     1       7.846   6.680  25.423  1.00  0.00     0.158 A 
BRANCH  15  18
ATOM     18  O   UNL     1       9.094   7.791  23.664  1.00  0.00    -0.504 OA
ATOM     19  H   UNL     1       8.385   8.168  23.047  1.00  0.00     0.293 HD
ENDBRANCH  15  18
BRANCH  17  20
ATOM     20  O   UNL     1       7.093   5.974  24.486  1.00  0.00    -0.504 OA
ATOM     21  H   UNL     1       7.291   5.009  24.254  1.00  0.00     0.293 HD
ENDBRANCH  17  20
ENDBRANCH   1  12
BRANCH   2  22
ATOM     22  O   UNL     1       9.591   5.032  29.253  1.00  0.00    -0.502 OA
ATOM     23  H   UNL     1      10.497   4.765  29.621  1.00  0.00     0.293 HD
ENDBRANCH   2  22
BRANCH   6  24
ATOM     24  O   UNL     1       7.877   5.641  34.125  1.00  0.00    -0.507 OA
ATOM     25  H   UNL     1       8.374   4.847  33.740  1.00  0.00     0.293 HD
ENDBRANCH   6  24
BRANCH   8  26
ATOM     26  O   UNL     1       4.878   9.391  33.643  1.00  0.00    -0.508 OA
ATOM     27  H   UNL     1       5.109  10.369  33.767  1.00  0.00     0.293 HD
ENDBRANCH   8  26
TORSDOF 6
ENDMDL
MODEL 2
REMARK VINA RESULT:     8.963      4.892      6.765
REMARK INTER + INTRA:          10.477
REMARK INTER:                  10.518
REMARK INTRA:                  -0.041
REMARK UNBOUND:                -0.320
REMARK SMILES O=c1c(O)c(-c2ccc(O)c(O)c2)oc2cc(O)cc(O)c12
REMARK SMILES IDX 5 1 3 2 2 3 1 4 22 5 20 6 19 7 17 8 16 9 15 10 14 11 6 12
REMARK SMILES IDX 7 13 8 14 9 15 13 16 11 17 10 18 12 20 4 22 21 24 18 26
REMARK H PARENT 10 19 12 21 4 23 21 25 18 27
REMARK Flexibility Score: inf
ROOT
ATOM      1  C   UNL     1      10.405  10.147  31.102  1.00  0.00     0.180 A 
ATOM      2  C   UNL     1       9.242  10.177  31.894  1.00  0.00     0.208 A 
ATOM      3  C   UNL     1       8.333   9.110  31.804  1.00  0.00     0.238 A 
ATOM      4  O   UNL     1       7.282   9.130  32.502  1.00  0.00    -0.285 OA
ATOM      5  C   UNL     1       8.610   8.028  30.943  1.00  0.00     0.111 A 
ATOM      6  C   UNL     1       7.749   6.914  30.797  1.00  0.00     0.134 A 
ATOM      7  C   UNL     1       8.100   5.873  29.925  1.00  0.00     0.093 A 
ATOM      8  C   UNL     1       9.292   5.923  29.200  1.00  0.00     0.123 A 
ATOM      9  C   UNL     1      10.147   7.021  29.338  1.00  0.00     0.094 A 
ATOM     10  C   UNL     1       9.813   8.070  30.201  1.00  0.00     0.146 A 
ATOM     11  O   UNL     1      10.641   9.104  30.311  1.00  0.00    -0.452 OA
ENDROOT
BRANCH   1  12
ATOM     12  C   UNL     1      11.401  11.243  31.126  1.00  0.00     0.025 A 
ATOM     13  C   UNL     1      11.733  11.900  29.930  1.00  0.00     0.016 A 
ATOM     14  C   UNL     1      12.654  12.950  29.932  1.00  0.00     0.051 A 
ATOM     15  C   UNL     1      13.245  13.370  31.131  1.00  0.00     0.157 A 
ATOM     16  C   UNL     1      11.980  11.681  32.330  1.00  0.00     0.062 A 
ATOM     17  C   UNL     1      12.902  12.734  32.337  1.00  0.00     0.158 A 
BRANCH  15  18
ATOM     18  O   UNL     1      14.165  14.417  31.130  1.00  0.00    -0.504 OA
ATOM     19  H   UNL     1      14.061  15.214  30.514  1.00  0.00     0.293 HD
ENDBRANCH  15  18
BRANCH  17  20
ATOM     20  O   UNL     1      13.462  13.138  33.548  1.00  0.00    -0.504 OA
ATOM     21  H   UNL     1      13.394  12.574  34.387  1.00  0.00     0.293 HD
ENDBRANCH  17  20
ENDBRANCH   1  12
BRANCH   2  22
ATOM     22  O   UNL     1       9.015  11.235  32.776  1.00  0.00    -0.502 OA
ATOM     23  H   UNL     1       9.369  11.237  33.726  1.00  0.00     0.293 HD
ENDBRANCH   2  22
BRANCH   6  24
ATOM     24  O   UNL     1       6.551   6.834  31.509  1.00  0.00    -0.507 OA
ATOM     25  H   UNL     1       5.786   7.476  31.338  1.00  0.00     0.293 HD
ENDBRANCH   6  24
BRANCH   8  26
ATOM     26  O   UNL     1       9.619   4.875  28.341  1.00  0.00    -0.508 OA
ATOM     27  H   UNL     1      10.341   4.973  27.637  1.00  0.00     0.293 HD
ENDBRANCH   8  26
TORSDOF 6
ENDMDL
