MODEL 1
REMARK VINA RESULT:    16.252      0.000      0.000
REMARK INTER + INTRA:          27.252
REMARK INTER:                  26.703
REMARK INTRA:                   0.549
REMARK UNBOUND:                 0.549
REMARK SMILES C[C@@H]1O[C@@H](OC[C@H]2O[C@H](Oc3c(-c4ccc(O)c(O)c4)oc4cc(O)cc(O)c4c3=O)[C@@H](O)[C@H](O)[C@H]2O)[C@@H](O)[C@H](O)[C@@H]1O
REMARK SMILES IDX 7 1 36 2 34 3 32 4 9 5 8 6 6 7 5 8 4 9 1 10 2 11 42 12 3 13
REMARK SMILES IDX 40 14 38 15 43 16 41 18 39 20 37 22 35 24 10 26 11 27 12 28
REMARK SMILES IDX 30 29 21 30 29 31 31 32 22 33 27 34 23 35 26 36 24 37 13 38
REMARK SMILES IDX 20 39 14 40 18 41 15 42 16 43 19 44 17 46 28 48 25 50 33 52
REMARK H PARENT 43 17 41 19 39 21 37 23 35 25 19 45 17 47 28 49 25 51 33 53
REMARK Flexibility Score: inf
ROOT
ATOM      1  C   UNL     1      92.024 102.832  99.003  1.00  0.00     0.180 C 
ATOM      2  C   UNL     1      92.335 101.789 100.188  1.00  0.00     0.177 C 
ATOM      3  C   UNL     1      92.962 102.482 101.455  1.00  0.00     0.180 C 
ATOM      4  C   UNL     1      92.220 103.858 101.682  1.00  0.00     0.214 C 
ATOM      5  C   UNL     1      92.156 104.719 100.377  1.00  0.00     0.339 C 
ATOM      6  O   UNL     1      91.408 104.056  99.344  1.00  0.00    -0.332 OA
ENDROOT
BRANCH   1   7
ATOM      7  C   UNL     1      91.138 102.117  97.980  1.00  0.00     0.198 C 
BRANCH   7   8
ATOM      8  O   UNL     1      90.876 100.747  98.302  1.00  0.00    -0.347 OA
BRANCH   8   9
ATOM      9  C   UNL     1      91.937  99.854  97.976  1.00  0.00     0.281 C 
ATOM     10  C   UNL     1      90.898  99.664  94.403  1.00  0.00     0.041 C 
ATOM     11  C   UNL     1      91.408  99.004  95.816  1.00  0.00     0.150 C 
ATOM     12  C   UNL     1      91.847  97.558  96.220  1.00  0.00     0.174 C 
ATOM     13  O   UNL     1      92.181  99.931  96.562  1.00  0.00    -0.344 OA
ATOM     14  C   UNL     1      91.431  97.225  97.689  1.00  0.00     0.179 C 
ATOM     15  C   UNL     1      91.985  98.369  98.641  1.00  0.00     0.202 C 
BRANCH  12  16
ATOM     16  O   UNL     1      93.263  97.449  96.212  1.00  0.00    -0.388 OA
ATOM     17  H   UNL     1      93.537  96.575  96.630  1.00  0.00     0.211 HD
ENDBRANCH  12  16
BRANCH  14  18
ATOM     18  O   UNL     1      91.939  95.922  98.041  1.00  0.00    -0.387 OA
ATOM     19  H   UNL     1      92.140  95.402  97.211  1.00  0.00     0.211 HD
ENDBRANCH  14  18
BRANCH  15  20
ATOM     20  O   UNL     1      91.313  98.248  99.845  1.00  0.00    -0.385 OA
ATOM     21  H   UNL     1      91.496  97.308 100.145  1.00  0.00     0.211 HD
ENDBRANCH  15  20
ENDBRANCH   8   9
ENDBRANCH   7   8
ENDBRANCH   1   7
BRANCH   2  22
ATOM     22  O   UNL     1      91.142 101.212 100.619  1.00  0.00    -0.387 OA
ATOM     23  H   UNL     1      90.542 101.936 100.896  1.00  0.00     0.211 HD
ENDBRANCH   2  22
BRANCH   3  24
ATOM     24  O   UNL     1      94.356 102.688 101.273  1.00  0.00    -0.387 OA
ATOM     25  H   UNL     1      94.744 101.781 101.317  1.00  0.00     0.211 HD
ENDBRANCH   3  24
BRANCH   5  26
ATOM     26  O   UNL     1      93.446 105.139  99.940  1.00  0.00    -0.454 OA
BRANCH  26  27
ATOM     27  C   UNL     1      93.708 106.419  99.413  1.00  0.00     0.214 A 
ATOM     28  C   UNL     1      93.975 106.564  98.037  1.00  0.00     0.180 A 
ATOM     29  C   UNL     1      93.735 107.554 100.235  1.00  0.00     0.239 A 
ATOM     30  O   UNL     1      94.107 107.813  97.535  1.00  0.00    -0.452 OA
ATOM     31  C   UNL     1      93.868 108.842  99.666  1.00  0.00     0.111 A 
ATOM     32  O   UNL     1      93.607 107.434 101.476  1.00  0.00    -0.285 OA
ATOM     33  C   UNL     1      94.020 108.921  98.258  1.00  0.00     0.146 A 
ATOM     34  C   UNL     1      93.856 110.042 100.409  1.00  0.00     0.134 A 
ATOM     35  C   UNL     1      94.056 110.144  97.636  1.00  0.00     0.094 A 
ATOM     36  C   UNL     1      93.908 111.286  99.748  1.00  0.00     0.093 A 
ATOM     37  C   UNL     1      94.007 111.316  98.362  1.00  0.00     0.123 A 
BRANCH  28  38
ATOM     38  C   UNL     1      94.193 105.485  97.100  1.00  0.00     0.025 A 
ATOM     39  C   UNL     1      93.176 104.506  96.827  1.00  0.00     0.062 A 
ATOM     40  C   UNL     1      95.458 105.298  96.515  1.00  0.00     0.016 A 
ATOM     41  C   UNL     1      93.408 103.437  95.960  1.00  0.00     0.158 A 
ATOM     42  C   UNL     1      95.682 104.270  95.612  1.00  0.00     0.051 A 
ATOM     43  C   UNL     1      94.686 103.320  95.359  1.00  0.00     0.157 A 
BRANCH  41  44
ATOM     44  O   UNL     1      92.385 102.571  95.624  1.00  0.00    -0.504 OA
ATOM     45  H   UNL     1      91.424 102.808  95.862  1.00  0.00     0.293 HD
ENDBRANCH  41  44
BRANCH  43  46
ATOM     46  O   UNL     1      94.954 102.242  94.514  1.00  0.00    -0.504 OA
ATOM     47  H   UNL     1      95.886 102.098  94.151  1.00  0.00     0.293 HD
ENDBRANCH  43  46
ENDBRANCH  28  38
BRANCH  34  48
ATOM     48  O   UNL     1      93.801 110.020 101.800  1.00  0.00    -0.507 OA
ATOM     49  H   UNL     1      94.030 109.207 102.341  1.00  0.00     0.293 HD
ENDBRANCH  34  48
BRANCH  37  50
ATOM     50  O   UNL     1      94.015 112.571  97.710  1.00  0.00    -0.508 OA
ATOM     51  H   UNL     1      93.280 113.244  97.845  1.00  0.00     0.293 HD
ENDBRANCH  37  50
ENDBRANCH  26  27
ENDBRANCH   5  26
BRANCH   4  52
ATOM     52  O   UNL     1      90.895 103.614 102.025  1.00  0.00    -0.384 OA
ATOM     53  H   UNL     1      90.685 102.691 101.768  1.00  0.00     0.211 HD
ENDBRANCH   4  52
TORSDOF 16
ENDMDL
MODEL 2
REMARK VINA RESULT:    16.685      1.612      9.505
REMARK INTER + INTRA:          27.964
REMARK INTER:                  24.007
REMARK INTRA:                   3.957
REMARK UNBOUND:                 0.549
REMARK SMILES C[C@@H]1O[C@@H](OC[C@H]2O[C@H](Oc3c(-c4ccc(O)c(O)c4)oc4cc(O)cc(O)c4c3=O)[C@@H](O)[C@H](O)[C@H]2O)[C@@H](O)[C@H](O)[C@@H]1O
REMARK SMILES IDX 7 1 36 2 34 3 32 4 9 5 8 6 6 7 5 8 4 9 1 10 2 11 42 12 3 13
REMARK SMILES IDX 40 14 38 15 43 16 41 18 39 20 37 22 35 24 10 26 11 27 12 28
REMARK SMILES IDX 30 29 21 30 29 31 31 32 22 33 27 34 23 35 26 36 24 37 13 38
REMARK SMILES IDX 20 39 14 40 18 41 15 42 16 43 19 44 17 46 28 48 25 50 33 52
REMARK H PARENT 43 17 41 19 39 21 37 23 35 25 19 45 17 47 28 49 25 51 33 53
REMARK Flexibility Score: inf
ROOT
ATOM      1  C   UNL     1      94.288 105.265  98.399  1.00  0.00     0.180 C 
ATOM      2  C   UNL     1      95.490 104.214  98.598  1.00  0.00     0.177 C 
ATOM      3  C   UNL     1      95.203 102.829  97.905  1.00  0.00     0.180 C 
ATOM      4  C   UNL     1      94.515 103.108  96.510  1.00  0.00     0.214 C 
ATOM      5  C   UNL     1      93.303 104.090  96.633  1.00  0.00     0.339 C 
ATOM      6  O   UNL     1      93.716 105.380  97.113  1.00  0.00    -0.332 OA
ENDROOT
BRANCH   1   7
ATOM      7  C   UNL     1      94.806 106.642  98.819  1.00  0.00     0.198 C 
BRANCH   7   8
ATOM      8  O   UNL     1      94.269 107.721  98.045  1.00  0.00    -0.347 OA
BRANCH   8   9
ATOM      9  C   UNL     1      93.409 108.593  98.772  1.00  0.00     0.281 C 
ATOM     10  C   UNL     1      94.637 111.598  96.943  1.00  0.00     0.041 C 
ATOM     11  C   UNL     1      94.190 110.792  98.301  1.00  0.00     0.150 C 
ATOM     12  C   UNL     1      94.008 111.232  99.791  1.00  0.00     0.174 C 
ATOM     13  O   UNL     1      93.223 109.795  98.008  1.00  0.00    -0.344 OA
ATOM     14  C   UNL     1      94.407 110.088 100.777  1.00  0.00     0.179 C 
ATOM     15  C   UNL     1      93.605 108.776 100.378  1.00  0.00     0.202 C 
BRANCH  12  16
ATOM     16  O   UNL     1      92.639 111.488 100.069  1.00  0.00    -0.388 OA
ATOM     17  H   UNL     1      92.062 110.867  99.526  1.00  0.00     0.211 HD
ENDBRANCH  12  16
BRANCH  14  18
ATOM     18  O   UNL     1      94.132 110.510 102.128  1.00  0.00    -0.387 OA
ATOM     19  H   UNL     1      93.552 109.834 102.583  1.00  0.00     0.211 HD
ENDBRANCH  14  18
BRANCH  15  20
ATOM     20  O   UNL     1      94.229 107.717 101.014  1.00  0.00    -0.385 OA
ATOM     21  H   UNL     1      94.564 107.135 100.268  1.00  0.00     0.211 HD
ENDBRANCH  15  20
ENDBRANCH   8   9
ENDBRANCH   7   8
ENDBRANCH   1   7
BRANCH   2  22
ATOM     22  O   UNL     1      96.642 104.711  97.992  1.00  0.00    -0.387 OA
ATOM     23  H   UNL     1      97.210 103.949  97.754  1.00  0.00     0.211 HD
ENDBRANCH   2  22
BRANCH   3  24
ATOM     24  O   UNL     1      94.367 102.024  98.725  1.00  0.00    -0.387 OA
ATOM     25  H   UNL     1      94.832 101.996  99.595  1.00  0.00     0.211 HD
ENDBRANCH   3  24
BRANCH   5  26
ATOM     26  O   UNL     1      92.231 103.537  97.395  1.00  0.00    -0.454 OA
BRANCH  26  27
ATOM     27  C   UNL     1      92.059 102.154  97.599  1.00  0.00     0.214 A 
ATOM     28  C   UNL     1      91.540 101.691  98.823  1.00  0.00     0.180 A 
ATOM     29  C   UNL     1      92.421 101.222  96.616  1.00  0.00     0.239 A 
ATOM     30  O   UNL     1      91.274 100.371  98.952  1.00  0.00    -0.452 OA
ATOM     31  C   UNL     1      92.118  99.852  96.789  1.00  0.00     0.111 A 
ATOM     32  O   UNL     1      92.984 101.605  95.564  1.00  0.00    -0.285 OA
ATOM     33  C   UNL     1      91.490  99.471  98.003  1.00  0.00     0.146 A 
ATOM     34  C   UNL     1      92.398  98.850  95.835  1.00  0.00     0.134 A 
ATOM     35  C   UNL     1      91.083  98.173  98.190  1.00  0.00     0.094 A 
ATOM     36  C   UNL     1      91.983  97.522  96.056  1.00  0.00     0.093 A 
ATOM     37  C   UNL     1      91.325  97.204  97.239  1.00  0.00     0.123 A 
BRANCH  28  38
ATOM     38  C   UNL     1      91.318 102.493 100.005  1.00  0.00     0.025 A 
ATOM     39  C   UNL     1      91.261 103.928  99.944  1.00  0.00     0.062 A 
ATOM     40  C   UNL     1      91.269 101.888 101.274  1.00  0.00     0.016 A 
ATOM     41  C   UNL     1      91.098 104.701 101.094  1.00  0.00     0.158 A 
ATOM     42  C   UNL     1      91.054 102.643 102.417  1.00  0.00     0.051 A 
ATOM     43  C   UNL     1      91.006 104.041 102.344  1.00  0.00     0.157 A 
BRANCH  41  44
ATOM     44  O   UNL     1      90.933 106.070 101.002  1.00  0.00    -0.504 OA
ATOM     45  H   UNL     1      91.584 106.691 101.479  1.00  0.00     0.293 HD
ENDBRANCH  41  44
BRANCH  43  46
ATOM     46  O   UNL     1      90.876 104.792 103.513  1.00  0.00    -0.504 OA
ATOM     47  H   UNL     1      90.586 105.758 103.469  1.00  0.00     0.293 HD
ENDBRANCH  43  46
ENDBRANCH  28  38
BRANCH  34  48
ATOM     48  O   UNL     1      93.094  99.152  94.668  1.00  0.00    -0.507 OA
ATOM     49  H   UNL     1      93.505  98.450  94.080  1.00  0.00     0.293 HD
ENDBRANCH  34  48
BRANCH  37  50
ATOM     50  O   UNL     1      90.876  95.876  97.428  1.00  0.00    -0.508 OA
ATOM     51  H   UNL     1      89.903  95.631  97.366  1.00  0.00     0.293 HD
ENDBRANCH  37  50
ENDBRANCH  26  27
ENDBRANCH   5  26
BRANCH   4  52
ATOM     52  O   UNL     1      95.421 103.747  95.672  1.00  0.00    -0.384 OA
ATOM     53  H   UNL     1      96.269 103.256  95.718  1.00  0.00     0.211 HD
ENDBRANCH   4  52
TORSDOF 16
ENDMDL
