MODEL 1
REMARK VINA RESULT:    -4.488      0.000      0.000
REMARK INTER + INTRA:          -9.189
REMARK INTER:                  -7.637
REMARK INTRA:                  -1.552
REMARK UNBOUND:                -1.552
REMARK SMILES CCCCCCCCCCCCCC(=O)[O-]
REMARK SMILES IDX 8 1 9 2 10 3 11 4 12 5 13 6 14 7 15 8 16 9 7 10 6 11 5 12
REMARK SMILES IDX 4 13 3 14 2 15 1 16
REMARK H PARENT
REMARK Flexibility Score: inf
ROOT
ATOM      1  C   UNL     1      12.742  -0.980   4.290  1.00  0.00     0.000 C 
ENDROOT
BRANCH   1   2
ATOM      2  C   UNL     1      14.194  -1.143   3.808  1.00  0.00     0.000 C 
BRANCH   2   3
ATOM      3  C   UNL     1      14.411  -2.433   3.001  1.00  0.00     0.000 C 
BRANCH   3   4
ATOM      4  C   UNL     1      14.894  -2.160   1.569  1.00  0.00     0.000 C 
BRANCH   4   5
ATOM      5  C   UNL     1      14.834  -0.660   1.247  1.00  0.00     0.006 C 
BRANCH   5   6
ATOM      6  C   UNL     1      15.604  -0.310  -0.033  1.00  0.00     0.053 C 
BRANCH   6   7
ATOM      7  C   UNL     1      14.738  -0.428  -1.250  1.00  0.00     0.041 C 
ATOM      8  O   UNL     1      15.258  -0.572  -2.387  1.00  0.00    -0.550 OA
ATOM      9  O   UNL     1      13.354  -0.411  -1.123  1.00  0.00    -0.550 OA
ENDBRANCH   6   7
ENDBRANCH   5   6
ENDBRANCH   4   5
ENDBRANCH   3   4
ENDBRANCH   2   3
ENDBRANCH   1   2
BRANCH   1  10
ATOM     10  C   UNL     1      12.388   0.491   4.594  1.00  0.00     0.000 C 
BRANCH  10  11
ATOM     11  C   UNL     1      11.093   0.973   3.912  1.00  0.00    -0.000 C 
BRANCH  11  12
ATOM     12  C   UNL     1      10.912   0.494   2.462  1.00  0.00    -0.000 C 
BRANCH  12  13
ATOM     13  C   UNL     1       9.624  -0.327   2.265  1.00  0.00    -0.000 C 
BRANCH  13  14
ATOM     14  C   UNL     1       9.907  -1.779   1.838  1.00  0.00    -0.000 C 
BRANCH  14  15
ATOM     15  C   UNL     1      11.231  -1.966   1.075  1.00  0.00    -0.003 C 
ATOM     16  C   UNL     1      11.182  -3.126   0.080  1.00  0.00     0.004 C 
ENDBRANCH  14  15
ENDBRANCH  13  14
ENDBRANCH  12  13
ENDBRANCH  11  12
ENDBRANCH  10  11
ENDBRANCH   1  10
TORSDOF 12
ENDMDL
MODEL 2
REMARK VINA RESULT:    -4.399      2.353      4.935
REMARK INTER + INTRA:          -9.037
REMARK INTER:                  -7.180
REMARK INTRA:                  -1.857
REMARK UNBOUND:                -1.552
REMARK SMILES CCCCCCCCCCCCCC(=O)[O-]
REMARK SMILES IDX 8 1 9 2 10 3 11 4 12 5 13 6 14 7 15 8 16 9 7 10 6 11 5 12
REMARK SMILES IDX 4 13 3 14 2 15 1 16
REMARK H PARENT
REMARK Flexibility Score: inf
ROOT
ATOM      1  C   UNL     1      16.207  -0.870   0.035  1.00  0.00     0.000 C 
ENDROOT
BRANCH   1   2
ATOM      2  C   UNL     1      15.355   0.227  -0.628  1.00  0.00     0.000 C 
BRANCH   2   3
ATOM      3  C   UNL     1      14.147  -0.338  -1.390  1.00  0.00     0.000 C 
BRANCH   3   4
ATOM      4  C   UNL     1      13.096  -0.958  -0.457  1.00  0.00     0.000 C 
BRANCH   4   5
ATOM      5  C   UNL     1      12.734   0.009   0.680  1.00  0.00     0.006 C 
BRANCH   5   6
ATOM      6  C   UNL     1      11.255   0.415   0.648  1.00  0.00     0.053 C 
BRANCH   6   7
ATOM      7  C   UNL     1      10.453  -0.335   1.668  1.00  0.00     0.041 C 
ATOM      8  O   UNL     1      10.459  -1.593   1.679  1.00  0.00    -0.550 OA
ATOM      9  O   UNL     1       9.725   0.359   2.626  1.00  0.00    -0.550 OA
ENDBRANCH   6   7
ENDBRANCH   5   6
ENDBRANCH   4   5
ENDBRANCH   3   4
ENDBRANCH   2   3
ENDBRANCH   1   2
BRANCH   1  10
ATOM     10  C   UNL     1      16.626  -0.496   1.472  1.00  0.00     0.000 C 
BRANCH  10  11
ATOM     11  C   UNL     1      16.101  -1.468   2.546  1.00  0.00    -0.000 C 
BRANCH  11  12
ATOM     12  C   UNL     1      15.361  -2.699   1.994  1.00  0.00    -0.000 C 
BRANCH  12  13
ATOM     13  C   UNL     1      13.989  -2.913   2.658  1.00  0.00    -0.000 C 
BRANCH  13  14
ATOM     14  C   UNL     1      13.910  -2.296   4.067  1.00  0.00    -0.000 C 
BRANCH  14  15
ATOM     15  C   UNL     1      12.730  -1.329   4.268  1.00  0.00    -0.003 C 
ATOM     16  C   UNL     1      13.159   0.139   4.251  1.00  0.00     0.004 C 
ENDBRANCH  14  15
ENDBRANCH  13  14
ENDBRANCH  12  13
ENDBRANCH  11  12
ENDBRANCH  10  11
ENDBRANCH   1  10
TORSDOF 12
ENDMDL
MODEL 3
REMARK VINA RESULT:    -4.338      1.766      4.563
REMARK INTER + INTRA:          -8.933
REMARK INTER:                  -7.523
REMARK INTRA:                  -1.410
REMARK UNBOUND:                -1.552
REMARK SMILES CCCCCCCCCCCCCC(=O)[O-]
REMARK SMILES IDX 8 1 9 2 10 3 11 4 12 5 13 6 14 7 15 8 16 9 7 10 6 11 5 12
REMARK SMILES IDX 4 13 3 14 2 15 1 16
REMARK H PARENT
REMARK Flexibility Score: inf
ROOT
ATOM      1  C   UNL     1      13.156  -0.663   4.328  1.00  0.00     0.000 C 
ENDROOT
BRANCH   1   2
ATOM      2  C   UNL     1      11.907   0.232   4.246  1.00  0.00     0.000 C 
BRANCH   2   3
ATOM      3  C   UNL     1      11.520   0.581   2.800  1.00  0.00     0.000 C 
BRANCH   3   4
ATOM      4  C   UNL     1      10.069   0.204   2.470  1.00  0.00     0.000 C 
BRANCH   4   5
ATOM      5  C   UNL     1       9.980  -1.243   1.961  1.00  0.00     0.006 C 
BRANCH   5   6
ATOM      6  C   UNL     1      10.920  -1.501   0.776  1.00  0.00     0.053 C 
BRANCH   6   7
ATOM      7  C   UNL     1      10.854  -2.925   0.316  1.00  0.00     0.041 C 
ATOM      8  O   UNL     1      11.911  -3.561   0.068  1.00  0.00    -0.550 OA
ATOM      9  O   UNL     1       9.624  -3.560   0.193  1.00  0.00    -0.550 OA
ENDBRANCH   6   7
ENDBRANCH   5   6
ENDBRANCH   4   5
ENDBRANCH   3   4
ENDBRANCH   2   3
ENDBRANCH   1   2
BRANCH   1  10
ATOM     10  C   UNL     1      13.006  -1.953   3.494  1.00  0.00     0.000 C 
BRANCH  10  11
ATOM     11  C   UNL     1      14.339  -2.490   2.936  1.00  0.00    -0.000 C 
BRANCH  11  12
ATOM     12  C   UNL     1      15.379  -1.408   2.599  1.00  0.00    -0.000 C 
BRANCH  12  13
ATOM     13  C   UNL     1      15.482  -1.135   1.087  1.00  0.00    -0.000 C 
BRANCH  13  14
ATOM     14  C   UNL     1      14.341  -0.241   0.568  1.00  0.00    -0.000 C 
BRANCH  14  15
ATOM     15  C   UNL     1      13.949  -0.502  -0.897  1.00  0.00    -0.003 C 
ATOM     16  C   UNL     1      15.149  -0.474  -1.845  1.00  0.00     0.004 C 
ENDBRANCH  14  15
ENDBRANCH  13  14
ENDBRANCH  12  13
ENDBRANCH  11  12
ENDBRANCH  10  11
ENDBRANCH   1  10
TORSDOF 12
ENDMDL
MODEL 4
REMARK VINA RESULT:    -4.293      2.247      4.497
REMARK INTER + INTRA:          -8.857
REMARK INTER:                  -6.914
REMARK INTRA:                  -1.943
REMARK UNBOUND:                -1.552
REMARK SMILES CCCCCCCCCCCCCC(=O)[O-]
REMARK SMILES IDX 8 1 9 2 10 3 11 4 12 5 13 6 14 7 15 8 16 9 7 10 6 11 5 12
REMARK SMILES IDX 4 13 3 14 2 15 1 16
REMARK H PARENT
REMARK Flexibility Score: inf
ROOT
ATOM      1  C   UNL     1      15.988  -0.672   2.360  1.00  0.00     0.000 C 
ENDROOT
BRANCH   1   2
ATOM      2  C   UNL     1      14.711  -0.011   2.908  1.00  0.00     0.000 C 
BRANCH   2   3
ATOM      3  C   UNL     1      14.124  -0.760   4.114  1.00  0.00     0.000 C 
BRANCH   3   4
ATOM      4  C   UNL     1      12.727  -0.254   4.502  1.00  0.00     0.000 C 
BRANCH   4   5
ATOM      5  C   UNL     1      12.062   0.474   3.324  1.00  0.00     0.006 C 
BRANCH   5   6
ATOM      6  C   UNL     1      10.556   0.672   3.540  1.00  0.00     0.053 C 
BRANCH   6   7
ATOM      7  C   UNL     1       9.761   0.209   2.357  1.00  0.00     0.041 C 
ATOM      8  O   UNL     1       9.983   0.690   1.216  1.00  0.00    -0.550 OA
ATOM      9  O   UNL     1       8.796  -0.780   2.512  1.00  0.00    -0.550 OA
ENDBRANCH   6   7
ENDBRANCH   5   6
ENDBRANCH   4   5
ENDBRANCH   3   4
ENDBRANCH   2   3
ENDBRANCH   1   2
BRANCH   1  10
ATOM     10  C   UNL     1      15.819  -1.149   0.902  1.00  0.00     0.000 C 
BRANCH  10  11
ATOM     11  C   UNL     1      15.237  -0.076  -0.040  1.00  0.00    -0.000 C 
BRANCH  11  12
ATOM     12  C   UNL     1      14.091  -0.564  -0.941  1.00  0.00    -0.000 C 
BRANCH  12  13
ATOM     13  C   UNL     1      12.735  -0.593  -0.213  1.00  0.00    -0.000 C 
BRANCH  13  14
ATOM     14  C   UNL     1      12.226  -2.026   0.033  1.00  0.00    -0.000 C 
BRANCH  14  15
ATOM     15  C   UNL     1      12.314  -2.484   1.500  1.00  0.00    -0.003 C 
ATOM     16  C   UNL     1      13.346  -3.592   1.713  1.00  0.00     0.004 C 
ENDBRANCH  14  15
ENDBRANCH  13  14
ENDBRANCH  12  13
ENDBRANCH  11  12
ENDBRANCH  10  11
ENDBRANCH   1  10
TORSDOF 12
ENDMDL
MODEL 5
REMARK VINA RESULT:    -4.260      2.121      4.156
REMARK INTER + INTRA:          -8.799
REMARK INTER:                  -7.454
REMARK INTRA:                  -1.346
REMARK UNBOUND:                -1.552
REMARK SMILES CCCCCCCCCCCCCC(=O)[O-]
REMARK SMILES IDX 8 1 9 2 10 3 11 4 12 5 13 6 14 7 15 8 16 9 7 10 6 11 5 12
REMARK SMILES IDX 4 13 3 14 2 15 1 16
REMARK H PARENT
REMARK Flexibility Score: inf
ROOT
ATOM      1  C   UNL     1      15.315  -0.158  -1.371  1.00  0.00     0.000 C 
ENDROOT
BRANCH   1   2
ATOM      2  C   UNL     1      16.278  -0.768  -0.336  1.00  0.00     0.000 C 
BRANCH   2   3
ATOM      3  C   UNL     1      16.804   0.268   0.669  1.00  0.00     0.000 C 
BRANCH   3   4
ATOM      4  C   UNL     1      16.177   0.111   2.062  1.00  0.00     0.000 C 
BRANCH   4   5
ATOM      5  C   UNL     1      16.183  -1.361   2.502  1.00  0.00     0.006 C 
BRANCH   5   6
ATOM      6  C   UNL     1      14.770  -1.888   2.782  1.00  0.00     0.053 C 
BRANCH   6   7
ATOM      7  C   UNL     1      14.485  -3.145   2.018  1.00  0.00     0.041 C 
ATOM      8  O   UNL     1      15.409  -3.966   1.780  1.00  0.00    -0.550 OA
ATOM      9  O   UNL     1      13.191  -3.424   1.596  1.00  0.00    -0.550 OA
ENDBRANCH   6   7
ENDBRANCH   5   6
ENDBRANCH   4   5
ENDBRANCH   3   4
ENDBRANCH   2   3
ENDBRANCH   1   2
BRANCH   1  10
ATOM     10  C   UNL     1      13.867  -0.660  -1.188  1.00  0.00     0.000 C 
BRANCH  10  11
ATOM     11  C   UNL     1      13.184  -0.134   0.089  1.00  0.00    -0.000 C 
BRANCH  11  12
ATOM     12  C   UNL     1      11.692  -0.486   0.214  1.00  0.00    -0.000 C 
BRANCH  12  13
ATOM     13  C   UNL     1      10.884   0.603   0.943  1.00  0.00    -0.000 C 
BRANCH  13  14
ATOM     14  C   UNL     1      10.078   0.046   2.131  1.00  0.00    -0.000 C 
BRANCH  14  15
ATOM     15  C   UNL     1      10.490   0.621   3.498  1.00  0.00    -0.003 C 
ATOM     16  C   UNL     1      11.952   0.338   3.844  1.00  0.00     0.004 C 
ENDBRANCH  14  15
ENDBRANCH  13  14
ENDBRANCH  12  13
ENDBRANCH  11  12
ENDBRANCH  10  11
ENDBRANCH   1  10
TORSDOF 12
ENDMDL
MODEL 6
REMARK VINA RESULT:    -4.197      2.496      3.872
REMARK INTER + INTRA:          -8.694
REMARK INTER:                  -6.887
REMARK INTRA:                  -1.806
REMARK UNBOUND:                -1.552
REMARK SMILES CCCCCCCCCCCCCC(=O)[O-]
REMARK SMILES IDX 8 1 9 2 10 3 11 4 12 5 13 6 14 7 15 8 16 9 7 10 6 11 5 12
REMARK SMILES IDX 4 13 3 14 2 15 1 16
REMARK H PARENT
REMARK Flexibility Score: inf
ROOT
ATOM      1  C   UNL     1      11.599  -0.256   0.299  1.00  0.00     0.000 C 
ENDROOT
BRANCH   1   2
ATOM      2  C   UNL     1      12.905  -0.899  -0.201  1.00  0.00     0.000 C 
BRANCH   2   3
ATOM      3  C   UNL     1      14.159  -0.198   0.345  1.00  0.00     0.000 C 
BRANCH   3   4
ATOM      4  C   UNL     1      15.361  -0.315  -0.604  1.00  0.00     0.000 C 
BRANCH   4   5
ATOM      5  C   UNL     1      16.683  -0.269   0.177  1.00  0.00     0.006 C 
BRANCH   5   6
ATOM      6  C   UNL     1      16.528   0.420   1.539  1.00  0.00     0.053 C 
BRANCH   6   7
ATOM      7  C   UNL     1      17.133  -0.393   2.643  1.00  0.00     0.041 C 
ATOM      8  O   UNL     1      16.809  -1.600   2.793  1.00  0.00    -0.550 OA
ATOM      9  O   UNL     1      18.081   0.175   3.486  1.00  0.00    -0.550 OA
ENDBRANCH   6   7
ENDBRANCH   5   6
ENDBRANCH   4   5
ENDBRANCH   3   4
ENDBRANCH   2   3
ENDBRANCH   1   2
BRANCH   1  10
ATOM     10  C   UNL     1      10.809  -1.191   1.239  1.00  0.00     0.000 C 
BRANCH  10  11
ATOM     11  C   UNL     1      10.384  -0.527   2.563  1.00  0.00    -0.000 C 
BRANCH  11  12
ATOM     12  C   UNL     1      11.325   0.584   3.058  1.00  0.00    -0.000 C 
BRANCH  12  13
ATOM     13  C   UNL     1      12.165   0.152   4.273  1.00  0.00    -0.000 C 
BRANCH  13  14
ATOM     14  C   UNL     1      13.506  -0.487   3.868  1.00  0.00    -0.000 C 
BRANCH  14  15
ATOM     15  C   UNL     1      13.609  -1.991   4.179  1.00  0.00    -0.003 C 
ATOM     16  C   UNL     1      13.551  -2.861   2.923  1.00  0.00     0.004 C 
ENDBRANCH  14  15
ENDBRANCH  13  14
ENDBRANCH  12  13
ENDBRANCH  11  12
ENDBRANCH  10  11
ENDBRANCH   1  10
TORSDOF 12
ENDMDL
MODEL 7
REMARK VINA RESULT:    -4.195      1.972      3.956
REMARK INTER + INTRA:          -8.690
REMARK INTER:                  -7.010
REMARK INTRA:                  -1.680
REMARK UNBOUND:                -1.552
REMARK SMILES CCCCCCCCCCCCCC(=O)[O-]
REMARK SMILES IDX 8 1 9 2 10 3 11 4 12 5 13 6 14 7 15 8 16 9 7 10 6 11 5 12
REMARK SMILES IDX 4 13 3 14 2 15 1 16
REMARK H PARENT
REMARK Flexibility Score: inf
ROOT
ATOM      1  C   UNL     1      12.281  -2.537   0.350  1.00  0.00     0.000 C 
ENDROOT
BRANCH   1   2
ATOM      2  C   UNL     1      11.962  -1.032   0.327  1.00  0.00     0.000 C 
BRANCH   2   3
ATOM      3  C   UNL     1      13.212  -0.163   0.121  1.00  0.00     0.000 C 
BRANCH   3   4
ATOM      4  C   UNL     1      13.977  -0.523  -1.160  1.00  0.00     0.000 C 
BRANCH   4   5
ATOM      5  C   UNL     1      15.495  -0.472  -0.925  1.00  0.00     0.006 C 
BRANCH   5   6
ATOM      6  C   UNL     1      15.853  -0.514   0.566  1.00  0.00     0.053 C 
BRANCH   6   7
ATOM      7  C   UNL     1      16.984   0.414   0.890  1.00  0.00     0.041 C 
ATOM      8  O   UNL     1      16.836   1.316   1.755  1.00  0.00    -0.550 OA
ATOM      9  O   UNL     1      18.213   0.259   0.260  1.00  0.00    -0.550 OA
ENDBRANCH   6   7
ENDBRANCH   5   6
ENDBRANCH   4   5
ENDBRANCH   3   4
ENDBRANCH   2   3
ENDBRANCH   1   2
BRANCH   1  10
ATOM     10  C   UNL     1      13.151  -2.933   1.562  1.00  0.00     0.000 C 
BRANCH  10  11
ATOM     11  C   UNL     1      12.651  -2.355   2.900  1.00  0.00    -0.000 C 
BRANCH  11  12
ATOM     12  C   UNL     1      13.709  -1.578   3.702  1.00  0.00    -0.000 C 
BRANCH  12  13
ATOM     13  C   UNL     1      13.402  -0.072   3.786  1.00  0.00    -0.000 C 
BRANCH  13  14
ATOM     14  C   UNL     1      12.176   0.234   4.666  1.00  0.00    -0.000 C 
BRANCH  14  15
ATOM     15  C   UNL     1      11.129   1.144   3.998  1.00  0.00    -0.003 C 
ATOM     16  C   UNL     1      10.170   0.374   3.089  1.00  0.00     0.004 C 
ENDBRANCH  14  15
ENDBRANCH  13  14
ENDBRANCH  12  13
ENDBRANCH  11  12
ENDBRANCH  10  11
ENDBRANCH   1  10
TORSDOF 12
ENDMDL
MODEL 8
REMARK VINA RESULT:    -4.183      2.017      4.173
REMARK INTER + INTRA:          -8.669
REMARK INTER:                  -7.199
REMARK INTRA:                  -1.470
REMARK UNBOUND:                -1.552
REMARK SMILES CCCCCCCCCCCCCC(=O)[O-]
REMARK SMILES IDX 8 1 9 2 10 3 11 4 12 5 13 6 14 7 15 8 16 9 7 10 6 11 5 12
REMARK SMILES IDX 4 13 3 14 2 15 1 16
REMARK H PARENT
REMARK Flexibility Score: inf
ROOT
ATOM      1  C   UNL     1      10.141   0.360   3.258  1.00  0.00     0.000 C 
ENDROOT
BRANCH   1   2
ATOM      2  C   UNL     1      11.590   0.878   3.287  1.00  0.00     0.000 C 
BRANCH   2   3
ATOM      3  C   UNL     1      12.429   0.234   4.402  1.00  0.00     0.000 C 
BRANCH   3   4
ATOM      4  C   UNL     1      13.784  -0.284   3.896  1.00  0.00     0.000 C 
BRANCH   4   5
ATOM      5  C   UNL     1      13.975  -1.764   4.262  1.00  0.00     0.006 C 
BRANCH   5   6
ATOM      6  C   UNL     1      13.935  -2.676   3.029  1.00  0.00     0.053 C 
BRANCH   6   7
ATOM      7  C   UNL     1      15.297  -2.860   2.431  1.00  0.00     0.041 C 
ATOM      8  O   UNL     1      15.419  -3.222   1.232  1.00  0.00    -0.550 OA
ATOM      9  O   UNL     1      16.431  -2.598   3.191  1.00  0.00    -0.550 OA
ENDBRANCH   6   7
ENDBRANCH   5   6
ENDBRANCH   4   5
ENDBRANCH   3   4
ENDBRANCH   2   3
ENDBRANCH   1   2
BRANCH   1  10
ATOM     10  C   UNL     1       9.834  -0.445   1.978  1.00  0.00     0.000 C 
BRANCH  10  11
ATOM     11  C   UNL     1      11.054  -1.195   1.408  1.00  0.00    -0.000 C 
BRANCH  11  12
ATOM     12  C   UNL     1      11.651  -0.579   0.132  1.00  0.00    -0.000 C 
BRANCH  12  13
ATOM     13  C   UNL     1      13.173  -0.371   0.230  1.00  0.00    -0.000 C 
BRANCH  13  14
ATOM     14  C   UNL     1      13.875  -0.481  -1.137  1.00  0.00    -0.000 C 
BRANCH  14  15
ATOM     15  C   UNL     1      15.411  -0.520  -1.057  1.00  0.00    -0.003 C 
ATOM     16  C   UNL     1      15.957   0.167   0.195  1.00  0.00     0.004 C 
ENDBRANCH  14  15
ENDBRANCH  13  14
ENDBRANCH  12  13
ENDBRANCH  11  12
ENDBRANCH  10  11
ENDBRANCH   1  10
TORSDOF 12
ENDMDL
MODEL 9
REMARK VINA RESULT:    -4.179      2.035      4.831
REMARK INTER + INTRA:          -8.662
REMARK INTER:                  -6.619
REMARK INTRA:                  -2.043
REMARK UNBOUND:                -1.552
REMARK SMILES CCCCCCCCCCCCCC(=O)[O-]
REMARK SMILES IDX 8 1 9 2 10 3 11 4 12 5 13 6 14 7 15 8 16 9 7 10 6 11 5 12
REMARK SMILES IDX 4 13 3 14 2 15 1 16
REMARK H PARENT
REMARK Flexibility Score: inf
ROOT
ATOM      1  C   UNL     1      13.834  -2.480   2.689  1.00  0.00     0.000 C 
ENDROOT
BRANCH   1   2
ATOM      2  C   UNL     1      13.364  -1.866   4.020  1.00  0.00     0.000 C 
BRANCH   2   3
ATOM      3  C   UNL     1      12.675  -0.505   3.836  1.00  0.00     0.000 C 
BRANCH   3   4
ATOM      4  C   UNL     1      13.003   0.146   2.485  1.00  0.00     0.000 C 
BRANCH   4   5
ATOM      5  C   UNL     1      11.719   0.532   1.736  1.00  0.00     0.006 C 
BRANCH   5   6
ATOM      6  C   UNL     1      11.540  -0.268   0.439  1.00  0.00     0.053 C 
BRANCH   6   7
ATOM      7  C   UNL     1      11.018  -1.647   0.706  1.00  0.00     0.041 C 
ATOM      8  O   UNL     1      11.420  -2.622   0.019  1.00  0.00    -0.550 OA
ATOM      9  O   UNL     1      10.110  -1.859   1.737  1.00  0.00    -0.550 OA
ENDBRANCH   6   7
ENDBRANCH   5   6
ENDBRANCH   4   5
ENDBRANCH   3   4
ENDBRANCH   2   3
ENDBRANCH   1   2
BRANCH   1  10
ATOM     10  C   UNL     1      15.316  -2.906   2.732  1.00  0.00     0.000 C 
BRANCH  10  11
ATOM     11  C   UNL     1      16.140  -2.181   3.814  1.00  0.00    -0.000 C 
BRANCH  11  12
ATOM     12  C   UNL     1      17.231  -1.242   3.271  1.00  0.00    -0.000 C 
BRANCH  12  13
ATOM     13  C   UNL     1      16.650  -0.007   2.559  1.00  0.00    -0.000 C 
BRANCH  13  14
ATOM     14  C   UNL     1      17.034   0.051   1.069  1.00  0.00    -0.000 C 
BRANCH  14  15
ATOM     15  C   UNL     1      15.866   0.394   0.128  1.00  0.00    -0.003 C 
ATOM     16  C   UNL     1      15.171  -0.849  -0.430  1.00  0.00     0.004 C 
ENDBRANCH  14  15
ENDBRANCH  13  14
ENDBRANCH  12  13
ENDBRANCH  11  12
ENDBRANCH  10  11
ENDBRANCH   1  10
TORSDOF 12
ENDMDL
