MODEL 1
REMARK VINA RESULT:    -6.920      0.000      0.000
REMARK INTER + INTRA:         -12.048
REMARK INTER:                  -9.550
REMARK INTRA:                  -2.498
REMARK UNBOUND:                -2.498
REMARK SMILES CC[C@@H](CC[C@@H](C)[C@H]1CC[C@H]2[C@@H]3CC=C4C[C@H](O)CC[C@]4(C)[C@H]3CC[C@@]12C)C(C)C
REMARK SMILES IDX 5 1 4 2 3 3 2 4 1 5 28 6 29 7 30 8 6 9 7 10 8 11 9 12 26 13
REMARK SMILES IDX 10 14 11 15 25 16 27 17 12 18 24 19 23 20 13 21 21 22 14 23
REMARK SMILES IDX 15 24 20 25 22 26 16 27 19 28 17 29 18 30
REMARK H PARENT 18 31
REMARK Flexibility Score: inf
ROOT
ATOM      1  C   UNL     1      10.971 -22.021  -3.577  1.00  0.00     0.004 C 
ENDROOT
BRANCH   1   2
ATOM      2  C   UNL     1      11.415 -20.806  -2.732  1.00  0.00     0.004 C 
BRANCH   2   3
ATOM      3  C   UNL     1      12.956 -20.732  -2.494  1.00  0.00    -0.009 C 
BRANCH   3   4
ATOM      4  C   UNL     1      13.326 -20.930  -0.987  1.00  0.00     0.000 C 
ATOM      5  C   UNL     1      14.132 -22.201  -0.687  1.00  0.00     0.004 C 
ENDBRANCH   3   4
BRANCH   3   6
ATOM      6  C   UNL     1      13.561 -19.418  -3.115  1.00  0.00    -0.014 C 
ATOM      7  C   UNL     1      15.053 -19.220  -2.780  1.00  0.00     0.007 C 
ATOM      8  C   UNL     1      13.407 -19.392  -4.654  1.00  0.00     0.007 C 
ENDBRANCH   3   6
ENDBRANCH   2   3
ENDBRANCH   1   2
BRANCH   1   9
ATOM      9  C   UNL     1      11.966 -23.220  -3.516  1.00  0.00    -0.011 C 
ATOM     10  C   UNL     1      11.296 -24.426  -2.834  1.00  0.00     0.008 C 
BRANCH   9  11
ATOM     11  C   UNL     1      12.488 -23.565  -4.962  1.00  0.00    -0.002 C 
ATOM     12  C   UNL     1      12.096 -22.482  -5.988  1.00  0.00     0.005 C 
ATOM     13  C   UNL     1      14.022 -23.807  -5.208  1.00  0.00    -0.026 C 
ATOM     14  C   UNL     1      13.170 -22.463  -7.067  1.00  0.00     0.005 C 
ATOM     15  C   UNL     1      14.126 -23.616  -6.748  1.00  0.00    -0.001 C 
ATOM     16  C   UNL     1      14.922 -22.774  -4.428  1.00  0.00     0.007 C 
ATOM     17  C   UNL     1      14.411 -25.273  -4.856  1.00  0.00     0.012 C 
ATOM     18  C   UNL     1      15.558 -23.383  -7.341  1.00  0.00     0.000 C 
ATOM     19  C   UNL     1      16.071 -22.129  -5.231  1.00  0.00     0.005 C 
ATOM     20  C   UNL     1      16.642 -23.095  -6.278  1.00  0.00     0.003 C 
ATOM     21  C   UNL     1      16.023 -24.566  -8.200  1.00  0.00     0.031 C 
ATOM     22  C   UNL     1      17.996 -22.642  -6.946  1.00  0.00    -0.008 C 
ATOM     23  C   UNL     1      17.415 -24.356  -8.732  1.00  0.00    -0.027 C 
ATOM     24  C   UNL     1      18.336 -23.565  -8.132  1.00  0.00    -0.065 C 
ATOM     25  C   UNL     1      19.145 -22.751  -5.892  1.00  0.00     0.014 C 
ATOM     26  C   UNL     1      17.912 -21.178  -7.458  1.00  0.00     0.016 C 
ATOM     27  C   UNL     1      19.735 -23.509  -8.716  1.00  0.00     0.063 C 
ATOM     28  C   UNL     1      20.556 -22.631  -6.495  1.00  0.00     0.033 C 
ATOM     29  C   UNL     1      20.786 -23.661  -7.613  1.00  0.00     0.118 C 
BRANCH  29  30
ATOM     30  O   UNL     1      20.732 -24.965  -7.093  1.00  0.00    -0.393 OA
ATOM     31  H   UNL     1      20.064 -25.464  -7.635  1.00  0.00     0.210 HD
ENDBRANCH  29  30
ENDBRANCH   9  11
ENDBRANCH   1   9
TORSDOF 7
ENDMDL
MODEL 2
REMARK VINA RESULT:    -6.897      1.018      1.577
REMARK INTER + INTRA:         -12.016
REMARK INTER:                  -9.995
REMARK INTRA:                  -2.021
REMARK UNBOUND:                -2.498
REMARK SMILES CC[C@@H](CC[C@@H](C)[C@H]1CC[C@H]2[C@@H]3CC=C4C[C@H](O)CC[C@]4(C)[C@H]3CC[C@@]12C)C(C)C
REMARK SMILES IDX 5 1 4 2 3 3 2 4 1 5 28 6 29 7 30 8 6 9 7 10 8 11 9 12 26 13
REMARK SMILES IDX 10 14 11 15 25 16 27 17 12 18 24 19 23 20 13 21 21 22 14 23
REMARK SMILES IDX 15 24 20 25 22 26 16 27 19 28 17 29 18 30
REMARK H PARENT 18 31
REMARK Flexibility Score: inf
ROOT
ATOM      1  C   UNL     1      11.799 -22.035  -2.605  1.00  0.00     0.004 C 
ENDROOT
BRANCH   1   2
ATOM      2  C   UNL     1      12.851 -21.253  -1.788  1.00  0.00     0.004 C 
BRANCH   2   3
ATOM      3  C   UNL     1      13.006 -19.761  -2.223  1.00  0.00    -0.009 C 
BRANCH   3   4
ATOM      4  C   UNL     1      14.344 -19.511  -2.993  1.00  0.00     0.000 C 
ATOM      5  C   UNL     1      14.176 -19.208  -4.488  1.00  0.00     0.004 C 
ENDBRANCH   3   4
BRANCH   3   6
ATOM      6  C   UNL     1      12.802 -18.792  -0.998  1.00  0.00    -0.014 C 
ATOM      7  C   UNL     1      13.565 -17.460  -1.145  1.00  0.00     0.007 C 
ATOM      8  C   UNL     1      11.307 -18.467  -0.771  1.00  0.00     0.007 C 
ENDBRANCH   3   6
ENDBRANCH   2   3
ENDBRANCH   1   2
BRANCH   1   9
ATOM      9  C   UNL     1      12.232 -23.494  -2.946  1.00  0.00    -0.011 C 
ATOM     10  C   UNL     1      11.132 -24.483  -2.523  1.00  0.00     0.008 C 
BRANCH   9  11
ATOM     11  C   UNL     1      12.583 -23.609  -4.478  1.00  0.00    -0.002 C 
ATOM     12  C   UNL     1      12.150 -22.355  -5.263  1.00  0.00     0.005 C 
ATOM     13  C   UNL     1      14.067 -23.866  -4.929  1.00  0.00    -0.026 C 
ATOM     14  C   UNL     1      13.107 -22.196  -6.436  1.00  0.00     0.005 C 
ATOM     15  C   UNL     1      14.024 -23.422  -6.418  1.00  0.00    -0.001 C 
ATOM     16  C   UNL     1      15.100 -23.015  -4.094  1.00  0.00     0.007 C 
ATOM     17  C   UNL     1      14.406 -25.385  -4.866  1.00  0.00     0.012 C 
ATOM     18  C   UNL     1      15.399 -23.149  -7.120  1.00  0.00     0.000 C 
ATOM     19  C   UNL     1      16.195 -22.290  -4.902  1.00  0.00     0.005 C 
ATOM     20  C   UNL     1      16.600 -23.087  -6.150  1.00  0.00     0.003 C 
ATOM     21  C   UNL     1      15.705 -24.187  -8.207  1.00  0.00     0.031 C 
ATOM     22  C   UNL     1      17.902 -22.581  -6.881  1.00  0.00    -0.008 C 
ATOM     23  C   UNL     1      17.045 -23.945  -8.848  1.00  0.00    -0.027 C 
ATOM     24  C   UNL     1      18.066 -23.303  -8.232  1.00  0.00    -0.065 C 
ATOM     25  C   UNL     1      19.145 -22.911  -5.992  1.00  0.00     0.014 C 
ATOM     26  C   UNL     1      17.850 -21.050  -7.134  1.00  0.00     0.016 C 
ATOM     27  C   UNL     1      19.398 -23.204  -8.949  1.00  0.00     0.063 C 
ATOM     28  C   UNL     1      20.491 -22.747  -6.719  1.00  0.00     0.033 C 
ATOM     29  C   UNL     1      20.546 -23.582  -8.009  1.00  0.00     0.118 C 
BRANCH  29  30
ATOM     30  O   UNL     1      20.472 -24.951  -7.707  1.00  0.00    -0.393 OA
ATOM     31  H   UNL     1      20.481 -25.029  -6.716  1.00  0.00     0.210 HD
ENDBRANCH  29  30
ENDBRANCH   9  11
ENDBRANCH   1   9
TORSDOF 7
ENDMDL
MODEL 3
REMARK VINA RESULT:    -6.337      1.433      2.566
REMARK INTER + INTRA:         -11.242
REMARK INTER:                 -10.334
REMARK INTRA:                  -0.909
REMARK UNBOUND:                -2.498
REMARK SMILES CC[C@@H](CC[C@@H](C)[C@H]1CC[C@H]2[C@@H]3CC=C4C[C@H](O)CC[C@]4(C)[C@H]3CC[C@@]12C)C(C)C
REMARK SMILES IDX 5 1 4 2 3 3 2 4 1 5 28 6 29 7 30 8 6 9 7 10 8 11 9 12 26 13
REMARK SMILES IDX 10 14 11 15 25 16 27 17 12 18 24 19 23 20 13 21 21 22 14 23
REMARK SMILES IDX 15 24 20 25 22 26 16 27 19 28 17 29 18 30
REMARK H PARENT 18 31
REMARK Flexibility Score: inf
ROOT
ATOM      1  C   UNL     1      12.482 -24.248  -2.527  1.00  0.00     0.004 C 
ENDROOT
BRANCH   1   2
ATOM      2  C   UNL     1      13.305 -23.637  -1.371  1.00  0.00     0.004 C 
BRANCH   2   3
ATOM      3  C   UNL     1      14.351 -24.619  -0.753  1.00  0.00    -0.009 C 
BRANCH   3   4
ATOM      4  C   UNL     1      13.927 -25.107   0.671  1.00  0.00     0.000 C 
ATOM      5  C   UNL     1      12.776 -26.122   0.683  1.00  0.00     0.004 C 
ENDBRANCH   3   4
BRANCH   3   6
ATOM      6  C   UNL     1      15.798 -24.000  -0.794  1.00  0.00    -0.014 C 
ATOM      7  C   UNL     1      15.798 -22.460  -0.861  1.00  0.00     0.007 C 
ATOM      8  C   UNL     1      16.636 -24.428   0.434  1.00  0.00     0.007 C 
ENDBRANCH   3   6
ENDBRANCH   2   3
ENDBRANCH   1   2
BRANCH   1   9
ATOM      9  C   UNL     1      11.973 -23.193  -3.556  1.00  0.00    -0.011 C 
ATOM     10  C   UNL     1      12.390 -21.780  -3.112  1.00  0.00     0.008 C 
BRANCH   9  11
ATOM     11  C   UNL     1      12.499 -23.546  -4.999  1.00  0.00    -0.002 C 
ATOM     12  C   UNL     1      12.115 -22.466  -6.030  1.00  0.00     0.005 C 
ATOM     13  C   UNL     1      14.033 -23.794  -5.238  1.00  0.00    -0.026 C 
ATOM     14  C   UNL     1      13.193 -22.455  -7.105  1.00  0.00     0.005 C 
ATOM     15  C   UNL     1      14.144 -23.611  -6.778  1.00  0.00    -0.001 C 
ATOM     16  C   UNL     1      14.935 -22.761  -4.459  1.00  0.00     0.007 C 
ATOM     17  C   UNL     1      14.415 -25.261  -4.878  1.00  0.00     0.012 C 
ATOM     18  C   UNL     1      15.579 -23.386  -7.367  1.00  0.00     0.000 C 
ATOM     19  C   UNL     1      16.089 -22.125  -5.260  1.00  0.00     0.005 C 
ATOM     20  C   UNL     1      16.660 -23.097  -6.301  1.00  0.00     0.003 C 
ATOM     21  C   UNL     1      16.042 -24.574  -8.219  1.00  0.00     0.031 C 
ATOM     22  C   UNL     1      18.018 -22.653  -6.966  1.00  0.00    -0.008 C 
ATOM     23  C   UNL     1      17.437 -24.372  -8.747  1.00  0.00    -0.027 C 
ATOM     24  C   UNL     1      18.359 -23.582  -8.147  1.00  0.00    -0.065 C 
ATOM     25  C   UNL     1      19.163 -22.761  -5.908  1.00  0.00     0.014 C 
ATOM     26  C   UNL     1      17.942 -21.191  -7.484  1.00  0.00     0.016 C 
ATOM     27  C   UNL     1      19.760 -23.534  -8.726  1.00  0.00     0.063 C 
ATOM     28  C   UNL     1      20.576 -22.650  -6.505  1.00  0.00     0.033 C 
ATOM     29  C   UNL     1      20.806 -23.686  -7.618  1.00  0.00     0.118 C 
BRANCH  29  30
ATOM     30  O   UNL     1      20.745 -24.987  -7.093  1.00  0.00    -0.393 OA
ATOM     31  H   UNL     1      20.823 -25.612  -7.863  1.00  0.00     0.210 HD
ENDBRANCH  29  30
ENDBRANCH   9  11
ENDBRANCH   1   9
TORSDOF 7
ENDMDL
MODEL 4
REMARK VINA RESULT:    -6.332      1.576      3.555
REMARK INTER + INTRA:         -11.236
REMARK INTER:                 -10.805
REMARK INTRA:                  -0.430
REMARK UNBOUND:                -2.498
REMARK SMILES CC[C@@H](CC[C@@H](C)[C@H]1CC[C@H]2[C@@H]3CC=C4C[C@H](O)CC[C@]4(C)[C@H]3CC[C@@]12C)C(C)C
REMARK SMILES IDX 5 1 4 2 3 3 2 4 1 5 28 6 29 7 30 8 6 9 7 10 8 11 9 12 26 13
REMARK SMILES IDX 10 14 11 15 25 16 27 17 12 18 24 19 23 20 13 21 21 22 14 23
REMARK SMILES IDX 15 24 20 25 22 26 16 27 19 28 17 29 18 30
REMARK H PARENT 18 31
REMARK Flexibility Score: inf
ROOT
ATOM      1  C   UNL     1      12.586 -24.004  -2.413  1.00  0.00     0.004 C 
ENDROOT
BRANCH   1   2
ATOM      2  C   UNL     1      11.602 -25.193  -2.332  1.00  0.00     0.004 C 
BRANCH   2   3
ATOM      3  C   UNL     1      12.276 -26.543  -1.930  1.00  0.00    -0.009 C 
BRANCH   3   4
ATOM      4  C   UNL     1      11.879 -27.706  -2.898  1.00  0.00     0.000 C 
ATOM      5  C   UNL     1      12.346 -27.520  -4.348  1.00  0.00     0.004 C 
ENDBRANCH   3   4
BRANCH   3   6
ATOM      6  C   UNL     1      12.011 -26.877  -0.414  1.00  0.00    -0.014 C 
ATOM      7  C   UNL     1      12.986 -26.163   0.544  1.00  0.00     0.007 C 
ATOM      8  C   UNL     1      10.569 -26.511   0.007  1.00  0.00     0.007 C 
ENDBRANCH   3   6
ENDBRANCH   2   3
ENDBRANCH   1   2
BRANCH   1   9
ATOM      9  C   UNL     1      12.182 -22.931  -3.469  1.00  0.00    -0.011 C 
ATOM     10  C   UNL     1      12.747 -21.557  -3.068  1.00  0.00     0.008 C 
BRANCH   9  11
ATOM     11  C   UNL     1      12.659 -23.378  -4.903  1.00  0.00    -0.002 C 
ATOM     12  C   UNL     1      12.237 -22.368  -5.989  1.00  0.00     0.005 C 
ATOM     13  C   UNL     1      14.185 -23.640  -5.179  1.00  0.00    -0.026 C 
ATOM     14  C   UNL     1      13.277 -22.427  -7.099  1.00  0.00     0.005 C 
ATOM     15  C   UNL     1      14.241 -23.558  -6.731  1.00  0.00    -0.001 C 
ATOM     16  C   UNL     1      15.110 -22.558  -4.501  1.00  0.00     0.007 C 
ATOM     17  C   UNL     1      14.584 -25.080  -4.737  1.00  0.00     0.012 C 
ATOM     18  C   UNL     1      15.655 -23.371  -7.382  1.00  0.00     0.000 C 
ATOM     19  C   UNL     1      16.233 -21.974  -5.382  1.00  0.00     0.005 C 
ATOM     20  C   UNL     1      16.771 -23.012  -6.376  1.00  0.00     0.003 C 
ATOM     21  C   UNL     1      16.092 -24.612  -8.171  1.00  0.00     0.031 C 
ATOM     22  C   UNL     1      18.104 -22.611  -7.115  1.00  0.00    -0.008 C 
ATOM     23  C   UNL     1      17.467 -24.444  -8.759  1.00  0.00    -0.027 C 
ATOM     24  C   UNL     1      18.407 -23.616  -8.244  1.00  0.00    -0.065 C 
ATOM     25  C   UNL     1      19.285 -22.649  -6.093  1.00  0.00     0.014 C 
ATOM     26  C   UNL     1      18.006 -21.187  -7.725  1.00  0.00     0.016 C 
ATOM     27  C   UNL     1      19.787 -23.604  -8.873  1.00  0.00     0.063 C 
ATOM     28  C   UNL     1      20.677 -22.576  -6.745  1.00  0.00     0.033 C 
ATOM     29  C   UNL     1      20.871 -23.682  -7.795  1.00  0.00     0.118 C 
BRANCH  29  30
ATOM     30  O   UNL     1      20.832 -24.947  -7.184  1.00  0.00    -0.393 OA
ATOM     31  H   UNL     1      21.518 -25.507  -7.637  1.00  0.00     0.210 HD
ENDBRANCH  29  30
ENDBRANCH   9  11
ENDBRANCH   1   9
TORSDOF 7
ENDMDL
MODEL 5
REMARK VINA RESULT:    -6.329      1.397      3.553
REMARK INTER + INTRA:         -11.232
REMARK INTER:                 -10.398
REMARK INTRA:                  -0.834
REMARK UNBOUND:                -2.498
REMARK SMILES CC[C@@H](CC[C@@H](C)[C@H]1CC[C@H]2[C@@H]3CC=C4C[C@H](O)CC[C@]4(C)[C@H]3CC[C@@]12C)C(C)C
REMARK SMILES IDX 5 1 4 2 3 3 2 4 1 5 28 6 29 7 30 8 6 9 7 10 8 11 9 12 26 13
REMARK SMILES IDX 10 14 11 15 25 16 27 17 12 18 24 19 23 20 13 21 21 22 14 23
REMARK SMILES IDX 15 24 20 25 22 26 16 27 19 28 17 29 18 30
REMARK H PARENT 18 31
REMARK Flexibility Score: inf
ROOT
ATOM      1  C   UNL     1      13.050 -23.953  -2.483  1.00  0.00     0.004 C 
ENDROOT
BRANCH   1   2
ATOM      2  C   UNL     1      12.249 -25.010  -1.690  1.00  0.00     0.004 C 
BRANCH   2   3
ATOM      3  C   UNL     1      11.401 -25.965  -2.589  1.00  0.00    -0.009 C 
BRANCH   3   4
ATOM      4  C   UNL     1       9.915 -26.054  -2.110  1.00  0.00     0.000 C 
ATOM      5  C   UNL     1       9.141 -24.731  -2.173  1.00  0.00     0.004 C 
ENDBRANCH   3   4
BRANCH   3   6
ATOM      6  C   UNL     1      12.096 -27.370  -2.732  1.00  0.00    -0.014 C 
ATOM      7  C   UNL     1      11.330 -28.500  -2.014  1.00  0.00     0.007 C 
ATOM      8  C   UNL     1      12.268 -27.774  -4.214  1.00  0.00     0.007 C 
ENDBRANCH   3   6
ENDBRANCH   2   3
ENDBRANCH   1   2
BRANCH   1   9
ATOM      9  C   UNL     1      12.197 -23.186  -3.539  1.00  0.00    -0.011 C 
ATOM     10  C   UNL     1      12.237 -21.675  -3.253  1.00  0.00     0.008 C 
BRANCH   9  11
ATOM     11  C   UNL     1      12.696 -23.533  -4.993  1.00  0.00    -0.002 C 
ATOM     12  C   UNL     1      12.289 -22.451  -6.013  1.00  0.00     0.005 C 
ATOM     13  C   UNL     1      14.225 -23.778  -5.263  1.00  0.00    -0.026 C 
ATOM     14  C   UNL     1      13.346 -22.434  -7.109  1.00  0.00     0.005 C 
ATOM     15  C   UNL     1      14.305 -23.588  -6.804  1.00  0.00    -0.001 C 
ATOM     16  C   UNL     1      15.139 -22.745  -4.497  1.00  0.00     0.007 C 
ATOM     17  C   UNL     1      14.618 -25.245  -4.915  1.00  0.00     0.012 C 
ATOM     18  C   UNL     1      15.729 -23.358  -7.419  1.00  0.00     0.000 C 
ATOM     19  C   UNL     1      16.276 -22.103  -5.319  1.00  0.00     0.005 C 
ATOM     20  C   UNL     1      16.829 -23.071  -6.374  1.00  0.00     0.003 C 
ATOM     21  C   UNL     1      16.178 -24.542  -8.285  1.00  0.00     0.031 C 
ATOM     22  C   UNL     1      18.174 -22.621  -7.064  1.00  0.00    -0.008 C 
ATOM     23  C   UNL     1      17.562 -24.335  -8.839  1.00  0.00    -0.027 C 
ATOM     24  C   UNL     1      18.493 -23.545  -8.254  1.00  0.00    -0.065 C 
ATOM     25  C   UNL     1      19.339 -22.730  -6.028  1.00  0.00     0.014 C 
ATOM     26  C   UNL     1      18.084 -21.157  -7.575  1.00  0.00     0.016 C 
ATOM     27  C   UNL     1      19.883 -23.491  -8.860  1.00  0.00     0.063 C 
ATOM     28  C   UNL     1      20.740 -22.613  -6.653  1.00  0.00     0.033 C 
ATOM     29  C   UNL     1      20.951 -23.645  -7.773  1.00  0.00     0.118 C 
BRANCH  29  30
ATOM     30  O   UNL     1      20.903 -24.948  -7.252  1.00  0.00    -0.393 OA
ATOM     31  H   UNL     1      21.784 -25.367  -7.442  1.00  0.00     0.210 HD
ENDBRANCH  29  30
ENDBRANCH   9  11
ENDBRANCH   1   9
TORSDOF 7
ENDMDL
MODEL 6
REMARK VINA RESULT:    -6.299      1.490      2.336
REMARK INTER + INTRA:         -11.190
REMARK INTER:                  -9.413
REMARK INTRA:                  -1.777
REMARK UNBOUND:                -2.498
REMARK SMILES CC[C@@H](CC[C@@H](C)[C@H]1CC[C@H]2[C@@H]3CC=C4C[C@H](O)CC[C@]4(C)[C@H]3CC[C@@]12C)C(C)C
REMARK SMILES IDX 5 1 4 2 3 3 2 4 1 5 28 6 29 7 30 8 6 9 7 10 8 11 9 12 26 13
REMARK SMILES IDX 10 14 11 15 25 16 27 17 12 18 24 19 23 20 13 21 21 22 14 23
REMARK SMILES IDX 15 24 20 25 22 26 16 27 19 28 17 29 18 30
REMARK H PARENT 18 31
REMARK Flexibility Score: inf
ROOT
ATOM      1  C   UNL     1      12.363 -20.444  -1.938  1.00  0.00     0.004 C 
ENDROOT
BRANCH   1   2
ATOM      2  C   UNL     1      12.625 -19.340  -0.888  1.00  0.00     0.004 C 
BRANCH   2   3
ATOM      3  C   UNL     1      13.195 -18.017  -1.491  1.00  0.00    -0.009 C 
BRANCH   3   4
ATOM      4  C   UNL     1      13.020 -17.960  -3.045  1.00  0.00     0.000 C 
ATOM      5  C   UNL     1      14.328 -17.797  -3.831  1.00  0.00     0.004 C 
ENDBRANCH   3   4
BRANCH   3   6
ATOM      6  C   UNL     1      14.678 -17.776  -1.023  1.00  0.00    -0.014 C 
ATOM      7  C   UNL     1      14.896 -16.388  -0.387  1.00  0.00     0.007 C 
ATOM      8  C   UNL     1      15.136 -18.847  -0.006  1.00  0.00     0.007 C 
ENDBRANCH   3   6
ENDBRANCH   2   3
ENDBRANCH   1   2
BRANCH   1   9
ATOM      9  C   UNL     1      13.516 -21.488  -2.045  1.00  0.00    -0.011 C 
ATOM     10  C   UNL     1      13.378 -22.542  -0.933  1.00  0.00     0.008 C 
BRANCH   9  11
ATOM     11  C   UNL     1      13.528 -22.134  -3.483  1.00  0.00    -0.002 C 
ATOM     12  C   UNL     1      12.927 -21.189  -4.542  1.00  0.00     0.005 C 
ATOM     13  C   UNL     1      14.882 -22.625  -4.113  1.00  0.00    -0.026 C 
ATOM     14  C   UNL     1      13.606 -21.497  -5.869  1.00  0.00     0.005 C 
ATOM     15  C   UNL     1      14.515 -22.705  -5.621  1.00  0.00    -0.001 C 
ATOM     16  C   UNL     1      16.064 -21.615  -3.850  1.00  0.00     0.007 C 
ATOM     17  C   UNL     1      15.239 -24.055  -3.606  1.00  0.00     0.012 C 
ATOM     18  C   UNL     1      15.704 -22.775  -6.641  1.00  0.00     0.000 C 
ATOM     19  C   UNL     1      16.954 -21.277  -5.065  1.00  0.00     0.005 C 
ATOM     20  C   UNL     1      17.085 -22.471  -6.020  1.00  0.00     0.003 C 
ATOM     21  C   UNL     1      15.776 -24.135  -7.346  1.00  0.00     0.031 C 
ATOM     22  C   UNL     1      18.196 -22.328  -7.130  1.00  0.00    -0.008 C 
ATOM     23  C   UNL     1      16.944 -24.213  -8.292  1.00  0.00    -0.027 C 
ATOM     24  C   UNL     1      18.069 -23.471  -8.157  1.00  0.00    -0.065 C 
ATOM     25  C   UNL     1      19.603 -22.423  -6.459  1.00  0.00     0.014 C 
ATOM     26  C   UNL     1      18.078 -20.970  -7.875  1.00  0.00     0.016 C 
ATOM     27  C   UNL     1      19.214 -23.706  -9.122  1.00  0.00     0.063 C 
ATOM     28  C   UNL     1      20.759 -22.602  -7.458  1.00  0.00     0.033 C 
ATOM     29  C   UNL     1      20.541 -23.823  -8.367  1.00  0.00     0.118 C 
BRANCH  29  30
ATOM     30  O   UNL     1      20.544 -25.004  -7.606  1.00  0.00    -0.393 OA
ATOM     31  H   UNL     1      19.621 -25.371  -7.641  1.00  0.00     0.210 HD
ENDBRANCH  29  30
ENDBRANCH   9  11
ENDBRANCH   1   9
TORSDOF 7
ENDMDL
MODEL 7
REMARK VINA RESULT:    -6.273      1.914      3.174
REMARK INTER + INTRA:         -11.155
REMARK INTER:                  -9.015
REMARK INTRA:                  -2.139
REMARK UNBOUND:                -2.498
REMARK SMILES CC[C@@H](CC[C@@H](C)[C@H]1CC[C@H]2[C@@H]3CC=C4C[C@H](O)CC[C@]4(C)[C@H]3CC[C@@]12C)C(C)C
REMARK SMILES IDX 5 1 4 2 3 3 2 4 1 5 28 6 29 7 30 8 6 9 7 10 8 11 9 12 26 13
REMARK SMILES IDX 10 14 11 15 25 16 27 17 12 18 24 19 23 20 13 21 21 22 14 23
REMARK SMILES IDX 15 24 20 25 22 26 16 27 19 28 17 29 18 30
REMARK H PARENT 18 31
REMARK Flexibility Score: inf
ROOT
ATOM      1  C   UNL     1      13.345 -18.694  -1.310  1.00  0.00     0.004 C 
ENDROOT
BRANCH   1   2
ATOM      2  C   UNL     1      14.274 -17.463  -1.219  1.00  0.00     0.004 C 
BRANCH   2   3
ATOM      3  C   UNL     1      15.770 -17.821  -0.950  1.00  0.00    -0.009 C 
BRANCH   3   4
ATOM      4  C   UNL     1      16.206 -17.461   0.508  1.00  0.00     0.000 C 
ATOM      5  C   UNL     1      16.434 -18.671   1.425  1.00  0.00     0.004 C 
ENDBRANCH   3   4
BRANCH   3   6
ATOM      6  C   UNL     1      16.706 -17.196  -2.051  1.00  0.00    -0.014 C 
ATOM      7  C   UNL     1      16.039 -17.112  -3.439  1.00  0.00     0.007 C 
ATOM      8  C   UNL     1      17.180 -15.777  -1.659  1.00  0.00     0.007 C 
ENDBRANCH   3   6
ENDBRANCH   2   3
ENDBRANCH   1   2
BRANCH   1   9
ATOM      9  C   UNL     1      14.111 -20.049  -1.399  1.00  0.00    -0.011 C 
ATOM     10  C   UNL     1      13.731 -20.948  -0.209  1.00  0.00     0.008 C 
BRANCH   9  11
ATOM     11  C   UNL     1      13.827 -20.741  -2.786  1.00  0.00    -0.002 C 
ATOM     12  C   UNL     1      13.338 -19.731  -3.843  1.00  0.00     0.005 C 
ATOM     13  C   UNL     1      14.965 -21.551  -3.508  1.00  0.00    -0.026 C 
ATOM     14  C   UNL     1      13.788 -20.240  -5.205  1.00  0.00     0.005 C 
ATOM     15  C   UNL     1      14.430 -21.609  -4.967  1.00  0.00    -0.001 C 
ATOM     16  C   UNL     1      16.361 -20.822  -3.426  1.00  0.00     0.007 C 
ATOM     17  C   UNL     1      15.051 -23.001  -2.946  1.00  0.00     0.012 C 
ATOM     18  C   UNL     1      15.459 -21.988  -6.088  1.00  0.00     0.000 C 
ATOM     19  C   UNL     1      17.168 -20.745  -4.738  1.00  0.00     0.005 C 
ATOM     20  C   UNL     1      16.931 -21.978  -5.622  1.00  0.00     0.003 C 
ATOM     21  C   UNL     1      15.154 -23.358  -6.707  1.00  0.00     0.031 C 
ATOM     22  C   UNL     1      17.921 -22.135  -6.840  1.00  0.00    -0.008 C 
ATOM     23  C   UNL     1      16.169 -23.737  -7.752  1.00  0.00    -0.027 C 
ATOM     24  C   UNL     1      17.437 -23.262  -7.773  1.00  0.00    -0.065 C 
ATOM     25  C   UNL     1      19.337 -22.515  -6.300  1.00  0.00     0.014 C 
ATOM     26  C   UNL     1      18.025 -20.818  -7.656  1.00  0.00     0.016 C 
ATOM     27  C   UNL     1      18.393 -23.790  -8.825  1.00  0.00     0.063 C 
ATOM     28  C   UNL     1      20.311 -22.993  -7.390  1.00  0.00     0.033 C 
ATOM     29  C   UNL     1      19.735 -24.170  -8.193  1.00  0.00     0.118 C 
BRANCH  29  30
ATOM     30  O   UNL     1      19.559 -25.288  -7.361  1.00  0.00    -0.393 OA
ATOM     31  H   UNL     1      19.724 -26.093  -7.921  1.00  0.00     0.210 HD
ENDBRANCH  29  30
ENDBRANCH   9  11
ENDBRANCH   1   9
TORSDOF 7
ENDMDL
MODEL 8
REMARK VINA RESULT:    -6.080      2.964      7.190
REMARK INTER + INTRA:         -10.888
REMARK INTER:                  -8.917
REMARK INTRA:                  -1.971
REMARK UNBOUND:                -2.498
REMARK SMILES CC[C@@H](CC[C@@H](C)[C@H]1CC[C@H]2[C@@H]3CC=C4C[C@H](O)CC[C@]4(C)[C@H]3CC[C@@]12C)C(C)C
REMARK SMILES IDX 5 1 4 2 3 3 2 4 1 5 28 6 29 7 30 8 6 9 7 10 8 11 9 12 26 13
REMARK SMILES IDX 10 14 11 15 25 16 27 17 12 18 24 19 23 20 13 21 21 22 14 23
REMARK SMILES IDX 15 24 20 25 22 26 16 27 19 28 17 29 18 30
REMARK H PARENT 18 31
REMARK Flexibility Score: inf
ROOT
ATOM      1  C   UNL     1      15.473 -24.507  -6.756  1.00  0.00     0.004 C 
ENDROOT
BRANCH   1   2
ATOM      2  C   UNL     1      16.129 -23.476  -7.702  1.00  0.00     0.004 C 
BRANCH   2   3
ATOM      3  C   UNL     1      17.660 -23.283  -7.460  1.00  0.00    -0.009 C 
BRANCH   3   4
ATOM      4  C   UNL     1      17.948 -22.203  -6.366  1.00  0.00     0.000 C 
ATOM      5  C   UNL     1      18.893 -22.661  -5.247  1.00  0.00     0.004 C 
ENDBRANCH   3   4
BRANCH   3   6
ATOM      6  C   UNL     1      18.415 -23.015  -8.815  1.00  0.00    -0.014 C 
ATOM      7  C   UNL     1      19.820 -23.648  -8.862  1.00  0.00     0.007 C 
ATOM      8  C   UNL     1      17.613 -23.536 -10.029  1.00  0.00     0.007 C 
ENDBRANCH   3   6
ENDBRANCH   2   3
ENDBRANCH   1   2
BRANCH   1   9
ATOM      9  C   UNL     1      14.111 -24.032  -6.164  1.00  0.00    -0.011 C 
ATOM     10  C   UNL     1      13.019 -25.078  -6.450  1.00  0.00     0.008 C 
BRANCH   9  11
ATOM     11  C   UNL     1      14.264 -23.733  -4.624  1.00  0.00    -0.002 C 
ATOM     12  C   UNL     1      15.617 -24.228  -4.075  1.00  0.00     0.005 C 
ATOM     13  C   UNL     1      14.136 -22.259  -4.093  1.00  0.00    -0.026 C 
ATOM     14  C   UNL     1      16.001 -23.318  -2.917  1.00  0.00     0.005 C 
ATOM     15  C   UNL     1      14.820 -22.368  -2.701  1.00  0.00    -0.001 C 
ATOM     16  C   UNL     1      14.869 -21.221  -5.027  1.00  0.00     0.007 C 
ATOM     17  C   UNL     1      12.639 -21.876  -3.888  1.00  0.00     0.012 C 
ATOM     18  C   UNL     1      15.252 -21.026  -2.014  1.00  0.00     0.000 C 
ATOM     19  C   UNL     1      15.755 -20.176  -4.319  1.00  0.00     0.005 C 
ATOM     20  C   UNL     1      15.192 -19.794  -2.943  1.00  0.00     0.003 C 
ATOM     21  C   UNL     1      14.422 -20.731  -0.759  1.00  0.00     0.031 C 
ATOM     22  C   UNL     1      15.855 -18.532  -2.269  1.00  0.00    -0.008 C 
ATOM     23  C   UNL     1      14.811 -19.421  -0.127  1.00  0.00    -0.027 C 
ATOM     24  C   UNL     1      15.375 -18.397  -0.810  1.00  0.00    -0.065 C 
ATOM     25  C   UNL     1      15.423 -17.250  -3.050  1.00  0.00     0.014 C 
ATOM     26  C   UNL     1      17.405 -18.636  -2.278  1.00  0.00     0.016 C 
ATOM     27  C   UNL     1      15.637 -17.094  -0.080  1.00  0.00     0.063 C 
ATOM     28  C   UNL     1      15.751 -15.936  -2.321  1.00  0.00     0.033 C 
ATOM     29  C   UNL     1      15.146 -15.903  -0.908  1.00  0.00     0.118 C 
BRANCH  29  30
ATOM     30  O   UNL     1      13.743 -15.930  -0.977  1.00  0.00    -0.393 OA
ATOM     31  H   UNL     1      13.504 -16.090  -1.929  1.00  0.00     0.210 HD
ENDBRANCH  29  30
ENDBRANCH   9  11
ENDBRANCH   1   9
TORSDOF 7
ENDMDL
MODEL 9
REMARK VINA RESULT:    -6.066      1.518      2.532
REMARK INTER + INTRA:         -10.869
REMARK INTER:                  -9.412
REMARK INTRA:                  -1.458
REMARK UNBOUND:                -2.498
REMARK SMILES CC[C@@H](CC[C@@H](C)[C@H]1CC[C@H]2[C@@H]3CC=C4C[C@H](O)CC[C@]4(C)[C@H]3CC[C@@]12C)C(C)C
REMARK SMILES IDX 5 1 4 2 3 3 2 4 1 5 28 6 29 7 30 8 6 9 7 10 8 11 9 12 26 13
REMARK SMILES IDX 10 14 11 15 25 16 27 17 12 18 24 19 23 20 13 21 21 22 14 23
REMARK SMILES IDX 15 24 20 25 22 26 16 27 19 28 17 29 18 30
REMARK H PARENT 18 31
REMARK Flexibility Score: inf
ROOT
ATOM      1  C   UNL     1      11.377 -21.777  -3.533  1.00  0.00     0.004 C 
ENDROOT
BRANCH   1   2
ATOM      2  C   UNL     1       9.958 -21.684  -2.927  1.00  0.00     0.004 C 
BRANCH   2   3
ATOM      3  C   UNL     1       9.046 -20.623  -3.620  1.00  0.00    -0.009 C 
BRANCH   3   4
ATOM      4  C   UNL     1       8.769 -20.977  -5.118  1.00  0.00     0.000 C 
ATOM      5  C   UNL     1       8.352 -22.434  -5.365  1.00  0.00     0.004 C 
ENDBRANCH   3   4
BRANCH   3   6
ATOM      6  C   UNL     1       9.617 -19.170  -3.420  1.00  0.00    -0.014 C 
ATOM      7  C   UNL     1       8.682 -18.070  -3.962  1.00  0.00     0.007 C 
ATOM      8  C   UNL     1       9.900 -18.868  -1.930  1.00  0.00     0.007 C 
ENDBRANCH   3   6
ENDBRANCH   2   3
ENDBRANCH   1   2
BRANCH   1   9
ATOM      9  C   UNL     1      11.944 -23.229  -3.573  1.00  0.00    -0.011 C 
ATOM     10  C   UNL     1      10.875 -24.226  -3.094  1.00  0.00     0.008 C 
BRANCH   9  11
ATOM     11  C   UNL     1      12.470 -23.564  -5.021  1.00  0.00    -0.002 C 
ATOM     12  C   UNL     1      12.086 -22.472  -6.039  1.00  0.00     0.005 C 
ATOM     13  C   UNL     1      14.003 -23.811  -5.263  1.00  0.00    -0.026 C 
ATOM     14  C   UNL     1      13.163 -22.450  -7.114  1.00  0.00     0.005 C 
ATOM     15  C   UNL     1      14.113 -23.609  -6.801  1.00  0.00    -0.001 C 
ATOM     16  C   UNL     1      14.906 -22.788  -4.472  1.00  0.00     0.007 C 
ATOM     17  C   UNL     1      14.385 -25.282  -4.921  1.00  0.00     0.012 C 
ATOM     18  C   UNL     1      15.549 -23.378  -7.387  1.00  0.00     0.000 C 
ATOM     19  C   UNL     1      16.060 -22.142  -5.266  1.00  0.00     0.005 C 
ATOM     20  C   UNL     1      16.630 -23.103  -6.319  1.00  0.00     0.003 C 
ATOM     21  C   UNL     1      16.011 -24.556  -8.254  1.00  0.00     0.031 C 
ATOM     22  C   UNL     1      17.989 -22.651  -6.979  1.00  0.00    -0.008 C 
ATOM     23  C   UNL     1      17.406 -24.349  -8.780  1.00  0.00    -0.027 C 
ATOM     24  C   UNL     1      18.328 -23.567  -8.171  1.00  0.00    -0.065 C 
ATOM     25  C   UNL     1      19.133 -22.773  -5.922  1.00  0.00     0.014 C 
ATOM     26  C   UNL     1      17.913 -21.183  -7.480  1.00  0.00     0.016 C 
ATOM     27  C   UNL     1      19.729 -23.512  -8.750  1.00  0.00     0.063 C 
ATOM     28  C   UNL     1      20.547 -22.656  -6.519  1.00  0.00     0.033 C 
ATOM     29  C   UNL     1      20.776 -23.678  -7.644  1.00  0.00     0.118 C 
BRANCH  29  30
ATOM     30  O   UNL     1      20.714 -24.986  -7.135  1.00  0.00    -0.393 OA
ATOM     31  H   UNL     1      21.460 -25.493  -7.554  1.00  0.00     0.210 HD
ENDBRANCH  29  30
ENDBRANCH   9  11
ENDBRANCH   1   9
TORSDOF 7
ENDMDL
