MODEL 1
REMARK VINA RESULT:    -7.427      0.000      0.000
REMARK INTER + INTRA:          -8.920
REMARK INTER:                  -8.947
REMARK INTRA:                   0.026
REMARK UNBOUND:                 0.026
REMARK SMILES O=c1c(O)c(-c2ccc(O)c(O)c2)oc2cc(O)cc(O)c12
REMARK SMILES IDX 5 1 3 2 2 3 1 4 22 5 20 6 19 7 17 8 16 9 15 10 14 11 6 12
REMARK SMILES IDX 7 13 8 14 9 15 13 16 11 17 10 18 12 20 4 22 21 24 18 26
REMARK H PARENT 10 19 12 21 4 23 21 25 18 27
REMARK Flexibility Score: inf
ROOT
ATOM      1  C   UNL     1       7.061  -0.874  35.674  1.00  0.00     0.180 A 
ATOM      2  C   UNL     1       5.990  -0.215  36.304  1.00  0.00     0.208 A 
ATOM      3  C   UNL     1       4.915  -0.974  36.791  1.00  0.00     0.238 A 
ATOM      4  O   UNL     1       3.936  -0.375  37.306  1.00  0.00    -0.285 OA
ATOM      5  C   UNL     1       4.930  -2.384  36.657  1.00  0.00     0.111 A 
ATOM      6  C   UNL     1       3.913  -3.256  37.149  1.00  0.00     0.134 A 
ATOM      7  C   UNL     1       3.967  -4.621  36.845  1.00  0.00     0.093 A 
ATOM      8  C   UNL     1       5.032  -5.157  36.123  1.00  0.00     0.123 A 
ATOM      9  C   UNL     1       6.063  -4.323  35.688  1.00  0.00     0.094 A 
ATOM     10  C   UNL     1       6.019  -2.951  35.945  1.00  0.00     0.146 A 
ATOM     11  O   UNL     1       7.014  -2.190  35.505  1.00  0.00    -0.452 OA
ENDROOT
BRANCH   1  12
ATOM     12  C   UNL     1       8.241  -0.144  35.157  1.00  0.00     0.025 A 
ATOM     13  C   UNL     1       8.689  -0.318  33.836  1.00  0.00     0.016 A 
ATOM     14  C   UNL     1       9.791   0.399  33.363  1.00  0.00     0.051 A 
ATOM     15  C   UNL     1      10.452   1.309  34.197  1.00  0.00     0.157 A 
ATOM     16  C   UNL     1       8.895   0.785  35.983  1.00  0.00     0.062 A 
ATOM     17  C   UNL     1      10.001   1.505  35.509  1.00  0.00     0.158 A 
BRANCH  15  18
ATOM     18  O   UNL     1      11.553   2.025  33.729  1.00  0.00    -0.504 OA
ATOM     19  H   UNL     1      11.480   2.646  32.932  1.00  0.00     0.293 HD
ENDBRANCH  15  18
BRANCH  17  20
ATOM     20  O   UNL     1      10.657   2.417  36.335  1.00  0.00    -0.504 OA
ATOM     21  H   UNL     1      10.164   3.189  36.769  1.00  0.00     0.293 HD
ENDBRANCH  17  20
ENDBRANCH   1  12
BRANCH   2  22
ATOM     22  O   UNL     1       5.986   1.179  36.407  1.00  0.00    -0.502 OA
ATOM     23  H   UNL     1       5.366   1.763  35.858  1.00  0.00     0.293 HD
ENDBRANCH   2  22
BRANCH   6  24
ATOM     24  O   UNL     1       2.852  -2.838  37.958  1.00  0.00    -0.507 OA
ATOM     25  H   UNL     1       2.320  -3.443  38.566  1.00  0.00     0.293 HD
ENDBRANCH   6  24
BRANCH   8  26
ATOM     26  O   UNL     1       5.062  -6.523  35.853  1.00  0.00    -0.508 OA
ATOM     27  H   UNL     1       5.274  -7.202  36.575  1.00  0.00     0.293 HD
ENDBRANCH   8  26
TORSDOF 6
ENDMDL
MODEL 2
REMARK VINA RESULT:    -6.992      4.223      6.142
REMARK INTER + INTRA:          -8.396
REMARK INTER:                  -8.245
REMARK INTRA:                  -0.150
REMARK UNBOUND:                 0.026
REMARK SMILES O=c1c(O)c(-c2ccc(O)c(O)c2)oc2cc(O)cc(O)c12
REMARK SMILES IDX 5 1 3 2 2 3 1 4 22 5 20 6 19 7 17 8 16 9 15 10 14 11 6 12
REMARK SMILES IDX 7 13 8 14 9 15 13 16 11 17 10 18 12 20 4 22 21 24 18 26
REMARK H PARENT 10 19 12 21 4 23 21 25 18 27
REMARK Flexibility Score: inf
ROOT
ATOM      1  C   UNL     1       3.404  -3.436  37.583  1.00  0.00     0.180 A 
ATOM      2  C   UNL     1       3.384  -2.159  38.171  1.00  0.00     0.208 A 
ATOM      3  C   UNL     1       2.637  -1.960  39.343  1.00  0.00     0.238 A 
ATOM      4  O   UNL     1       2.579  -0.803  39.833  1.00  0.00    -0.285 OA
ATOM      5  C   UNL     1       1.932  -3.044  39.922  1.00  0.00     0.111 A 
ATOM      6  C   UNL     1       1.177  -2.966  41.130  1.00  0.00     0.134 A 
ATOM      7  C   UNL     1       0.414  -4.067  41.540  1.00  0.00     0.093 A 
ATOM      8  C   UNL     1       0.432  -5.262  40.822  1.00  0.00     0.123 A 
ATOM      9  C   UNL     1       1.215  -5.369  39.672  1.00  0.00     0.094 A 
ATOM     10  C   UNL     1       1.958  -4.276  39.218  1.00  0.00     0.146 A 
ATOM     11  O   UNL     1       2.681  -4.415  38.114  1.00  0.00    -0.452 OA
ENDROOT
BRANCH   1  12
ATOM     12  C   UNL     1       4.189  -3.729  36.362  1.00  0.00     0.025 A 
ATOM     13  C   UNL     1       5.586  -3.573  36.334  1.00  0.00     0.016 A 
ATOM     14  C   UNL     1       6.308  -3.879  35.178  1.00  0.00     0.051 A 
ATOM     15  C   UNL     1       5.648  -4.356  34.039  1.00  0.00     0.157 A 
ATOM     16  C   UNL     1       3.534  -4.228  35.224  1.00  0.00     0.062 A 
ATOM     17  C   UNL     1       4.259  -4.535  34.063  1.00  0.00     0.158 A 
BRANCH  15  18
ATOM     18  O   UNL     1       6.365  -4.661  32.883  1.00  0.00    -0.504 OA
ATOM     19  H   UNL     1       6.233  -4.139  32.025  1.00  0.00     0.293 HD
ENDBRANCH  15  18
BRANCH  17  20
ATOM     20  O   UNL     1       3.605  -5.017  32.930  1.00  0.00    -0.504 OA
ATOM     21  H   UNL     1       4.023  -5.725  32.338  1.00  0.00     0.293 HD
ENDBRANCH  17  20
ENDBRANCH   1  12
BRANCH   2  22
ATOM     22  O   UNL     1       4.069  -1.098  37.571  1.00  0.00    -0.502 OA
ATOM     23  H   UNL     1       4.407  -0.302  38.098  1.00  0.00     0.293 HD
ENDBRANCH   2  22
BRANCH   6  24
ATOM     24  O   UNL     1       1.163  -1.850  41.971  1.00  0.00    -0.507 OA
ATOM     25  H   UNL     1       0.967  -0.907  41.671  1.00  0.00     0.293 HD
ENDBRANCH   6  24
BRANCH   8  26
ATOM     26  O   UNL     1      -0.326  -6.342  41.268  1.00  0.00    -0.508 OA
ATOM     27  H   UNL     1      -1.327  -6.389  41.110  1.00  0.00     0.293 HD
ENDBRANCH   8  26
TORSDOF 6
ENDMDL
MODEL 3
REMARK VINA RESULT:    -6.972      4.656      6.739
REMARK INTER + INTRA:          -8.372
REMARK INTER:                  -8.214
REMARK INTRA:                  -0.157
REMARK UNBOUND:                 0.026
REMARK SMILES O=c1c(O)c(-c2ccc(O)c(O)c2)oc2cc(O)cc(O)c12
REMARK SMILES IDX 5 1 3 2 2 3 1 4 22 5 20 6 19 7 17 8 16 9 15 10 14 11 6 12
REMARK SMILES IDX 7 13 8 14 9 15 13 16 11 17 10 18 12 20 4 22 21 24 18 26
REMARK H PARENT 10 19 12 21 4 23 21 25 18 27
REMARK Flexibility Score: inf
ROOT
ATOM      1  C   UNL     1       3.459  -4.152  37.365  1.00  0.00     0.180 A 
ATOM      2  C   UNL     1       2.808  -5.260  37.935  1.00  0.00     0.208 A 
ATOM      3  C   UNL     1       2.178  -5.114  39.180  1.00  0.00     0.238 A 
ATOM      4  O   UNL     1       1.645  -6.123  39.710  1.00  0.00    -0.285 OA
ATOM      5  C   UNL     1       2.192  -3.858  39.834  1.00  0.00     0.111 A 
ATOM      6  C   UNL     1       1.551  -3.585  41.080  1.00  0.00     0.134 A 
ATOM      7  C   UNL     1       1.740  -2.343  41.697  1.00  0.00     0.093 A 
ATOM      8  C   UNL     1       2.492  -1.341  41.084  1.00  0.00     0.123 A 
ATOM      9  C   UNL     1       3.074  -1.576  39.837  1.00  0.00     0.094 A 
ATOM     10  C   UNL     1       2.932  -2.818  39.214  1.00  0.00     0.146 A 
ATOM     11  O   UNL     1       3.510  -3.005  38.033  1.00  0.00    -0.452 OA
ENDROOT
BRANCH   1  12
ATOM     12  C   UNL     1       4.124  -4.222  36.044  1.00  0.00     0.025 A 
ATOM     13  C   UNL     1       5.518  -4.095  35.918  1.00  0.00     0.016 A 
ATOM     14  C   UNL     1       6.126  -4.188  34.663  1.00  0.00     0.051 A 
ATOM     15  C   UNL     1       5.353  -4.422  33.520  1.00  0.00     0.157 A 
ATOM     16  C   UNL     1       3.355  -4.476  34.896  1.00  0.00     0.062 A 
ATOM     17  C   UNL     1       3.965  -4.570  33.637  1.00  0.00     0.158 A 
BRANCH  15  18
ATOM     18  O   UNL     1       5.956  -4.513  32.266  1.00  0.00    -0.504 OA
ATOM     19  H   UNL     1       6.521  -3.760  31.894  1.00  0.00     0.293 HD
ENDBRANCH  15  18
BRANCH  17  20
ATOM     20  O   UNL     1       3.198  -4.809  32.497  1.00  0.00    -0.504 OA
ATOM     21  H   UNL     1       3.496  -4.494  31.581  1.00  0.00     0.293 HD
ENDBRANCH  17  20
ENDBRANCH   1  12
BRANCH   2  22
ATOM     22  O   UNL     1       2.825  -6.497  37.283  1.00  0.00    -0.502 OA
ATOM     23  H   UNL     1       3.279  -7.313  37.676  1.00  0.00     0.293 HD
ENDBRANCH   2  22
BRANCH   6  24
ATOM     24  O   UNL     1       0.703  -4.484  41.734  1.00  0.00    -0.507 OA
ATOM     25  H   UNL     1       0.786  -4.751  42.704  1.00  0.00     0.293 HD
ENDBRANCH   6  24
BRANCH   8  26
ATOM     26  O   UNL     1       2.646  -0.112  41.718  1.00  0.00    -0.508 OA
ATOM     27  H   UNL     1       2.004   0.197  42.440  1.00  0.00     0.293 HD
ENDBRANCH   8  26
TORSDOF 6
ENDMDL
MODEL 4
REMARK VINA RESULT:    -6.859      4.519      7.888
REMARK INTER + INTRA:          -8.236
REMARK INTER:                  -8.337
REMARK INTRA:                   0.101
REMARK UNBOUND:                 0.026
REMARK SMILES O=c1c(O)c(-c2ccc(O)c(O)c2)oc2cc(O)cc(O)c12
REMARK SMILES IDX 5 1 3 2 2 3 1 4 22 5 20 6 19 7 17 8 16 9 15 10 14 11 6 12
REMARK SMILES IDX 7 13 8 14 9 15 13 16 11 17 10 18 12 20 4 22 21 24 18 26
REMARK H PARENT 10 19 12 21 4 23 21 25 18 27
REMARK Flexibility Score: inf
ROOT
ATOM      1  C   UNL     1       3.566  -5.050  38.119  1.00  0.00     0.180 A 
ATOM      2  C   UNL     1       3.788  -6.438  38.124  1.00  0.00     0.208 A 
ATOM      3  C   UNL     1       4.617  -6.999  37.140  1.00  0.00     0.238 A 
ATOM      4  O   UNL     1       4.768  -8.248  37.117  1.00  0.00    -0.285 OA
ATOM      5  C   UNL     1       5.227  -6.163  36.172  1.00  0.00     0.111 A 
ATOM      6  C   UNL     1       6.117  -6.619  35.154  1.00  0.00     0.134 A 
ATOM      7  C   UNL     1       6.558  -5.724  34.172  1.00  0.00     0.093 A 
ATOM      8  C   UNL     1       6.194  -4.378  34.208  1.00  0.00     0.123 A 
ATOM      9  C   UNL     1       5.372  -3.910  35.233  1.00  0.00     0.094 A 
ATOM     10  C   UNL     1       4.887  -4.786  36.207  1.00  0.00     0.146 A 
ATOM     11  O   UNL     1       4.099  -4.303  37.160  1.00  0.00    -0.452 OA
ENDROOT
BRANCH   1  12
ATOM     12  C   UNL     1       2.725  -4.383  39.139  1.00  0.00     0.025 A 
ATOM     13  C   UNL     1       1.490  -4.924  39.538  1.00  0.00     0.016 A 
ATOM     14  C   UNL     1       0.724  -4.289  40.520  1.00  0.00     0.051 A 
ATOM     15  C   UNL     1       1.187  -3.115  41.125  1.00  0.00     0.157 A 
ATOM     16  C   UNL     1       3.193  -3.216  39.765  1.00  0.00     0.062 A 
ATOM     17  C   UNL     1       2.425  -2.579  40.751  1.00  0.00     0.158 A 
BRANCH  15  18
ATOM     18  O   UNL     1       0.425  -2.478  42.104  1.00  0.00    -0.504 OA
ATOM     19  H   UNL     1      -0.521  -2.774  42.315  1.00  0.00     0.293 HD
ENDBRANCH  15  18
BRANCH  17  20
ATOM     20  O   UNL     1       2.886  -1.413  41.361  1.00  0.00    -0.504 OA
ATOM     21  H   UNL     1       3.402  -0.712  40.842  1.00  0.00     0.293 HD
ENDBRANCH  17  20
ENDBRANCH   1  12
BRANCH   2  22
ATOM     22  O   UNL     1       3.159  -7.247  39.075  1.00  0.00    -0.502 OA
ATOM     23  H   UNL     1       3.566  -8.114  39.407  1.00  0.00     0.293 HD
ENDBRANCH   2  22
BRANCH   6  24
ATOM     24  O   UNL     1       6.616  -7.922  35.080  1.00  0.00    -0.507 OA
ATOM     25  H   UNL     1       7.507  -8.219  35.449  1.00  0.00     0.293 HD
ENDBRANCH   6  24
BRANCH   8  26
ATOM     26  O   UNL     1       6.665  -3.513  33.223  1.00  0.00    -0.508 OA
ATOM     27  H   UNL     1       7.244  -3.843  32.459  1.00  0.00     0.293 HD
ENDBRANCH   8  26
TORSDOF 6
ENDMDL
MODEL 5
REMARK VINA RESULT:    -6.856      4.354      7.853
REMARK INTER + INTRA:          -8.232
REMARK INTER:                  -8.556
REMARK INTRA:                   0.324
REMARK UNBOUND:                 0.026
REMARK SMILES O=c1c(O)c(-c2ccc(O)c(O)c2)oc2cc(O)cc(O)c12
REMARK SMILES IDX 5 1 3 2 2 3 1 4 22 5 20 6 19 7 17 8 16 9 15 10 14 11 6 12
REMARK SMILES IDX 7 13 8 14 9 15 13 16 11 17 10 18 12 20 4 22 21 24 18 26
REMARK H PARENT 10 19 12 21 4 23 21 25 18 27
REMARK Flexibility Score: inf
ROOT
ATOM      1  C   UNL     1       3.382  -4.470  38.274  1.00  0.00     0.180 A 
ATOM      2  C   UNL     1       3.829  -3.296  37.642  1.00  0.00     0.208 A 
ATOM      3  C   UNL     1       4.791  -3.394  36.625  1.00  0.00     0.238 A 
ATOM      4  O   UNL     1       5.227  -2.337  36.101  1.00  0.00    -0.285 OA
ATOM      5  C   UNL     1       5.283  -4.666  36.240  1.00  0.00     0.111 A 
ATOM      6  C   UNL     1       6.229  -4.886  35.195  1.00  0.00     0.134 A 
ATOM      7  C   UNL     1       6.742  -6.172  34.988  1.00  0.00     0.093 A 
ATOM      8  C   UNL     1       6.297  -7.256  35.744  1.00  0.00     0.123 A 
ATOM      9  C   UNL     1       5.328  -7.062  36.729  1.00  0.00     0.094 A 
ATOM     10  C   UNL     1       4.823  -5.784  36.983  1.00  0.00     0.146 A 
ATOM     11  O   UNL     1       3.910  -5.640  37.936  1.00  0.00    -0.452 OA
ENDROOT
BRANCH   1  12
ATOM     12  C   UNL     1       2.351  -4.449  39.337  1.00  0.00     0.025 A 
ATOM     13  C   UNL     1       1.488  -5.540  39.542  1.00  0.00     0.016 A 
ATOM     14  C   UNL     1       0.539  -5.507  40.567  1.00  0.00     0.051 A 
ATOM     15  C   UNL     1       0.447  -4.392  41.408  1.00  0.00     0.157 A 
ATOM     16  C   UNL     1       2.268  -3.341  40.197  1.00  0.00     0.062 A 
ATOM     17  C   UNL     1       1.315  -3.309  41.226  1.00  0.00     0.158 A 
BRANCH  15  18
ATOM     18  O   UNL     1      -0.500  -4.356  42.431  1.00  0.00    -0.504 OA
ATOM     19  H   UNL     1      -1.389  -3.885  42.313  1.00  0.00     0.293 HD
ENDBRANCH  15  18
BRANCH  17  20
ATOM     20  O   UNL     1       1.226  -2.202  42.070  1.00  0.00    -0.504 OA
ATOM     21  H   UNL     1       2.050  -1.692  42.364  1.00  0.00     0.293 HD
ENDBRANCH  17  20
ENDBRANCH   1  12
BRANCH   2  22
ATOM     22  O   UNL     1       3.346  -2.050  38.052  1.00  0.00    -0.502 OA
ATOM     23  H   UNL     1       3.738  -1.547  38.840  1.00  0.00     0.293 HD
ENDBRANCH   2  22
BRANCH   6  24
ATOM     24  O   UNL     1       6.673  -3.890  34.321  1.00  0.00    -0.507 OA
ATOM     25  H   UNL     1       7.450  -3.987  33.685  1.00  0.00     0.293 HD
ENDBRANCH   6  24
BRANCH   8  26
ATOM     26  O   UNL     1       6.818  -8.524  35.500  1.00  0.00    -0.508 OA
ATOM     27  H   UNL     1       7.469  -8.694  34.742  1.00  0.00     0.293 HD
ENDBRANCH   8  26
TORSDOF 6
ENDMDL
MODEL 6
REMARK VINA RESULT:    -6.855      4.371      6.582
REMARK INTER + INTRA:          -8.232
REMARK INTER:                  -8.130
REMARK INTRA:                  -0.102
REMARK UNBOUND:                 0.026
REMARK SMILES O=c1c(O)c(-c2ccc(O)c(O)c2)oc2cc(O)cc(O)c12
REMARK SMILES IDX 5 1 3 2 2 3 1 4 22 5 20 6 19 7 17 8 16 9 15 10 14 11 6 12
REMARK SMILES IDX 7 13 8 14 9 15 13 16 11 17 10 18 12 20 4 22 21 24 18 26
REMARK H PARENT 10 19 12 21 4 23 21 25 18 27
REMARK Flexibility Score: inf
ROOT
ATOM      1  C   UNL     1       3.223  -4.274  37.247  1.00  0.00     0.180 A 
ATOM      2  C   UNL     1       2.603  -5.381  37.853  1.00  0.00     0.208 A 
ATOM      3  C   UNL     1       2.049  -5.235  39.134  1.00  0.00     0.238 A 
ATOM      4  O   UNL     1       1.544  -6.242  39.693  1.00  0.00    -0.285 OA
ATOM      5  C   UNL     1       2.108  -3.979  39.788  1.00  0.00     0.111 A 
ATOM      6  C   UNL     1       1.544  -3.707  41.070  1.00  0.00     0.134 A 
ATOM      7  C   UNL     1       1.775  -2.466  41.676  1.00  0.00     0.093 A 
ATOM      8  C   UNL     1       2.492  -1.466  41.021  1.00  0.00     0.123 A 
ATOM      9  C   UNL     1       2.998  -1.702  39.741  1.00  0.00     0.094 A 
ATOM     10  C   UNL     1       2.814  -2.942  39.125  1.00  0.00     0.146 A 
ATOM     11  O   UNL     1       3.319  -3.129  37.912  1.00  0.00    -0.452 OA
ENDROOT
BRANCH   1  12
ATOM     12  C   UNL     1       3.808  -4.344  35.888  1.00  0.00     0.025 A 
ATOM     13  C   UNL     1       3.039  -4.742  34.780  1.00  0.00     0.016 A 
ATOM     14  C   UNL     1       3.605  -4.777  33.503  1.00  0.00     0.051 A 
ATOM     15  C   UNL     1       4.941  -4.404  33.313  1.00  0.00     0.157 A 
ATOM     16  C   UNL     1       5.142  -3.952  35.689  1.00  0.00     0.062 A 
ATOM     17  C   UNL     1       5.710  -3.987  34.407  1.00  0.00     0.158 A 
BRANCH  15  18
ATOM     18  O   UNL     1       5.510  -4.440  32.040  1.00  0.00    -0.504 OA
ATOM     19  H   UNL     1       5.124  -5.017  31.304  1.00  0.00     0.293 HD
ENDBRANCH  15  18
BRANCH  17  20
ATOM     20  O   UNL     1       7.039  -3.610  34.214  1.00  0.00    -0.504 OA
ATOM     21  H   UNL     1       7.703  -4.223  33.756  1.00  0.00     0.293 HD
ENDBRANCH  17  20
ENDBRANCH   1  12
BRANCH   2  22
ATOM     22  O   UNL     1       2.576  -6.616  37.199  1.00  0.00    -0.502 OA
ATOM     23  H   UNL     1       3.152  -7.398  37.489  1.00  0.00     0.293 HD
ENDBRANCH   2  22
BRANCH   6  24
ATOM     24  O   UNL     1       0.733  -4.603  41.773  1.00  0.00    -0.507 OA
ATOM     25  H   UNL     1       1.074  -5.335  42.377  1.00  0.00     0.293 HD
ENDBRANCH   6  24
BRANCH   8  26
ATOM     26  O   UNL     1       2.689  -0.238  41.647  1.00  0.00    -0.508 OA
ATOM     27  H   UNL     1       3.211   0.508  41.200  1.00  0.00     0.293 HD
ENDBRANCH   8  26
TORSDOF 6
ENDMDL
MODEL 7
REMARK VINA RESULT:    -6.700      3.617      7.079
REMARK INTER + INTRA:          -8.044
REMARK INTER:                  -8.598
REMARK INTRA:                   0.554
REMARK UNBOUND:                 0.026
REMARK SMILES O=c1c(O)c(-c2ccc(O)c(O)c2)oc2cc(O)cc(O)c12
REMARK SMILES IDX 5 1 3 2 2 3 1 4 22 5 20 6 19 7 17 8 16 9 15 10 14 11 6 12
REMARK SMILES IDX 7 13 8 14 9 15 13 16 11 17 10 18 12 20 4 22 21 24 18 26
REMARK H PARENT 10 19 12 21 4 23 21 25 18 27
REMARK Flexibility Score: inf
ROOT
ATOM      1  C   UNL     1       4.641  -4.864  37.012  1.00  0.00     0.180 A 
ATOM      2  C   UNL     1       3.665  -4.936  38.021  1.00  0.00     0.208 A 
ATOM      3  C   UNL     1       3.094  -3.748  38.502  1.00  0.00     0.238 A 
ATOM      4  O   UNL     1       2.261  -3.815  39.442  1.00  0.00    -0.285 OA
ATOM      5  C   UNL     1       3.494  -2.503  37.958  1.00  0.00     0.111 A 
ATOM      6  C   UNL     1       2.952  -1.239  38.341  1.00  0.00     0.134 A 
ATOM      7  C   UNL     1       3.515  -0.063  37.830  1.00  0.00     0.093 A 
ATOM      8  C   UNL     1       4.554  -0.106  36.902  1.00  0.00     0.123 A 
ATOM      9  C   UNL     1       5.051  -1.338  36.474  1.00  0.00     0.094 A 
ATOM     10  C   UNL     1       4.534  -2.527  36.993  1.00  0.00     0.146 A 
ATOM     11  O   UNL     1       5.042  -3.678  36.568  1.00  0.00    -0.452 OA
ENDROOT
BRANCH   1  12
ATOM     12  C   UNL     1       5.271  -6.075  36.436  1.00  0.00     0.025 A 
ATOM     13  C   UNL     1       6.309  -5.982  35.493  1.00  0.00     0.016 A 
ATOM     14  C   UNL     1       6.904  -7.138  34.982  1.00  0.00     0.051 A 
ATOM     15  C   UNL     1       6.480  -8.400  35.414  1.00  0.00     0.157 A 
ATOM     16  C   UNL     1       4.864  -7.343  36.882  1.00  0.00     0.062 A 
ATOM     17  C   UNL     1       5.461  -8.504  36.369  1.00  0.00     0.158 A 
BRANCH  15  18
ATOM     18  O   UNL     1       7.071  -9.557  34.904  1.00  0.00    -0.504 OA
ATOM     19  H   UNL     1       8.065  -9.727  34.995  1.00  0.00     0.293 HD
ENDBRANCH  15  18
BRANCH  17  20
ATOM     20  O   UNL     1       5.046  -9.762  36.803  1.00  0.00    -0.504 OA
ATOM     21  H   UNL     1       4.226 -10.213  36.415  1.00  0.00     0.293 HD
ENDBRANCH  17  20
ENDBRANCH   1  12
BRANCH   2  22
ATOM     22  O   UNL     1       3.301  -6.174  38.559  1.00  0.00    -0.502 OA
ATOM     23  H   UNL     1       2.479  -6.293  39.141  1.00  0.00     0.293 HD
ENDBRANCH   2  22
BRANCH   6  24
ATOM     24  O   UNL     1       1.854  -1.087  39.193  1.00  0.00    -0.507 OA
ATOM     25  H   UNL     1       1.833  -1.371  40.160  1.00  0.00     0.293 HD
ENDBRANCH   6  24
BRANCH   8  26
ATOM     26  O   UNL     1       5.078   1.083  36.402  1.00  0.00    -0.508 OA
ATOM     27  H   UNL     1       6.045   1.345  36.561  1.00  0.00     0.293 HD
ENDBRANCH   8  26
TORSDOF 6
ENDMDL
MODEL 8
REMARK VINA RESULT:    -6.673      4.664      7.646
REMARK INTER + INTRA:          -8.012
REMARK INTER:                  -7.873
REMARK INTRA:                  -0.139
REMARK UNBOUND:                 0.026
REMARK SMILES O=c1c(O)c(-c2ccc(O)c(O)c2)oc2cc(O)cc(O)c12
REMARK SMILES IDX 5 1 3 2 2 3 1 4 22 5 20 6 19 7 17 8 16 9 15 10 14 11 6 12
REMARK SMILES IDX 7 13 8 14 9 15 13 16 11 17 10 18 12 20 4 22 21 24 18 26
REMARK H PARENT 10 19 12 21 4 23 21 25 18 27
REMARK Flexibility Score: inf
ROOT
ATOM      1  C   UNL     1       3.726  -4.472  38.074  1.00  0.00     0.180 A 
ATOM      2  C   UNL     1       4.375  -3.676  37.114  1.00  0.00     0.208 A 
ATOM      3  C   UNL     1       5.164  -4.297  36.134  1.00  0.00     0.238 A 
ATOM      4  O   UNL     1       5.786  -3.576  35.312  1.00  0.00    -0.285 OA
ATOM      5  C   UNL     1       5.282  -5.708  36.115  1.00  0.00     0.111 A 
ATOM      6  C   UNL     1       6.022  -6.447  35.143  1.00  0.00     0.134 A 
ATOM      7  C   UNL     1       6.177  -7.829  35.297  1.00  0.00     0.093 A 
ATOM      8  C   UNL     1       5.565  -8.510  36.349  1.00  0.00     0.123 A 
ATOM      9  C   UNL     1       4.789  -7.806  37.271  1.00  0.00     0.094 A 
ATOM     10  C   UNL     1       4.646  -6.421  37.164  1.00  0.00     0.146 A 
ATOM     11  O   UNL     1       3.908  -5.787  38.068  1.00  0.00    -0.452 OA
ENDROOT
BRANCH   1  12
ATOM     12  C   UNL     1       2.856  -3.892  39.123  1.00  0.00     0.025 A 
ATOM     13  C   UNL     1       3.367  -3.011  40.092  1.00  0.00     0.016 A 
ATOM     14  C   UNL     1       2.523  -2.456  41.058  1.00  0.00     0.051 A 
ATOM     15  C   UNL     1       1.158  -2.763  41.061  1.00  0.00     0.157 A 
ATOM     16  C   UNL     1       1.482  -4.180  39.118  1.00  0.00     0.062 A 
ATOM     17  C   UNL     1       0.635  -3.624  40.088  1.00  0.00     0.158 A 
BRANCH  15  18
ATOM     18  O   UNL     1       0.312  -2.213  42.025  1.00  0.00    -0.504 OA
ATOM     19  H   UNL     1      -0.695  -2.235  41.920  1.00  0.00     0.293 HD
ENDBRANCH  15  18
BRANCH  17  20
ATOM     20  O   UNL     1      -0.728  -3.922  40.090  1.00  0.00    -0.504 OA
ATOM     21  H   UNL     1      -1.107  -4.669  39.520  1.00  0.00     0.293 HD
ENDBRANCH  17  20
ENDBRANCH   1  12
BRANCH   2  22
ATOM     22  O   UNL     1       4.263  -2.283  37.165  1.00  0.00    -0.502 OA
ATOM     23  H   UNL     1       5.067  -1.676  37.270  1.00  0.00     0.293 HD
ENDBRANCH   2  22
BRANCH   6  24
ATOM     24  O   UNL     1       6.598  -5.877  34.003  1.00  0.00    -0.507 OA
ATOM     25  H   UNL     1       6.400  -4.949  33.662  1.00  0.00     0.293 HD
ENDBRANCH   6  24
BRANCH   8  26
ATOM     26  O   UNL     1       5.727  -9.888  36.462  1.00  0.00    -0.508 OA
ATOM     27  H   UNL     1       5.625 -10.363  37.352  1.00  0.00     0.293 HD
ENDBRANCH   8  26
TORSDOF 6
ENDMDL
MODEL 9
REMARK VINA RESULT:    -6.617      3.041      5.653
REMARK INTER + INTRA:          -7.944
REMARK INTER:                  -8.328
REMARK INTRA:                   0.383
REMARK UNBOUND:                 0.026
REMARK SMILES O=c1c(O)c(-c2ccc(O)c(O)c2)oc2cc(O)cc(O)c12
REMARK SMILES IDX 5 1 3 2 2 3 1 4 22 5 20 6 19 7 17 8 16 9 15 10 14 11 6 12
REMARK SMILES IDX 7 13 8 14 9 15 13 16 11 17 10 18 12 20 4 22 21 24 18 26
REMARK H PARENT 10 19 12 21 4 23 21 25 18 27
REMARK Flexibility Score: inf
ROOT
ATOM      1  C   UNL     1       3.798  -3.342  37.963  1.00  0.00     0.180 A 
ATOM      2  C   UNL     1       3.750  -4.725  37.720  1.00  0.00     0.208 A 
ATOM      3  C   UNL     1       2.824  -5.509  38.424  1.00  0.00     0.238 A 
ATOM      4  O   UNL     1       2.823  -6.754  38.242  1.00  0.00    -0.285 OA
ATOM      5  C   UNL     1       1.945  -4.898  39.353  1.00  0.00     0.111 A 
ATOM      6  C   UNL     1       0.939  -5.590  40.093  1.00  0.00     0.134 A 
ATOM      7  C   UNL     1       0.215  -4.908  41.078  1.00  0.00     0.093 A 
ATOM      8  C   UNL     1       0.414  -3.547  41.305  1.00  0.00     0.123 A 
ATOM      9  C   UNL     1       1.353  -2.847  40.546  1.00  0.00     0.094 A 
ATOM     10  C   UNL     1       2.116  -3.508  39.580  1.00  0.00     0.146 A 
ATOM     11  O   UNL     1       3.006  -2.809  38.887  1.00  0.00    -0.452 OA
ENDROOT
BRANCH   1  12
ATOM     12  C   UNL     1       4.730  -2.446  37.241  1.00  0.00     0.025 A 
ATOM     13  C   UNL     1       5.877  -2.946  36.600  1.00  0.00     0.016 A 
ATOM     14  C   UNL     1       6.729  -2.085  35.904  1.00  0.00     0.051 A 
ATOM     15  C   UNL     1       6.442  -0.717  35.828  1.00  0.00     0.157 A 
ATOM     16  C   UNL     1       4.436  -1.075  37.145  1.00  0.00     0.062 A 
ATOM     17  C   UNL     1       5.292  -0.211  36.446  1.00  0.00     0.158 A 
BRANCH  15  18
ATOM     18  O   UNL     1       7.292   0.146  35.136  1.00  0.00    -0.504 OA
ATOM     19  H   UNL     1       7.149   1.149  35.144  1.00  0.00     0.293 HD
ENDBRANCH  15  18
BRANCH  17  20
ATOM     20  O   UNL     1       5.005   1.151  36.363  1.00  0.00    -0.504 OA
ATOM     21  H   UNL     1       4.079   1.511  36.565  1.00  0.00     0.293 HD
ENDBRANCH  17  20
ENDBRANCH   1  12
BRANCH   2  22
ATOM     22  O   UNL     1       4.641  -5.311  36.816  1.00  0.00    -0.502 OA
ATOM     23  H   UNL     1       4.906  -4.863  35.946  1.00  0.00     0.293 HD
ENDBRANCH   2  22
BRANCH   6  24
ATOM     24  O   UNL     1       0.596  -6.929  39.881  1.00  0.00    -0.507 OA
ATOM     25  H   UNL     1       0.218  -7.543  40.585  1.00  0.00     0.293 HD
ENDBRANCH   6  24
BRANCH   8  26
ATOM     26  O   UNL     1      -0.336  -2.897  42.282  1.00  0.00    -0.508 OA
ATOM     27  H   UNL     1      -0.612  -1.926  42.181  1.00  0.00     0.293 HD
ENDBRANCH   8  26
TORSDOF 6
ENDMDL
