MODEL 1
REMARK VINA RESULT:    -3.943      0.000      0.000
REMARK INTER + INTRA:          -6.814
REMARK INTER:                  -6.249
REMARK INTRA:                  -0.565
REMARK UNBOUND:                -0.565
REMARK SMILES CCCCCCCCCCCC(=O)[O-]
REMARK SMILES IDX 7 1 8 2 9 3 10 4 11 5 12 6 13 7 14 8 6 9 5 10 4 11 3 12 2 13
REMARK SMILES IDX 1 14
REMARK H PARENT
REMARK Flexibility Score: inf
ROOT
ATOM      1  C   UNL     1     -45.468 -26.390   1.219  1.00  0.00     0.000 C 
ENDROOT
BRANCH   1   2
ATOM      2  C   UNL     1     -46.436 -26.542   2.401  1.00  0.00     0.000 C 
BRANCH   2   3
ATOM      3  C   UNL     1     -46.258 -27.908   3.084  1.00  0.00     0.000 C 
BRANCH   3   4
ATOM      4  C   UNL     1     -46.573 -27.864   4.587  1.00  0.00     0.006 C 
BRANCH   4   5
ATOM      5  C   UNL     1     -46.081 -26.574   5.256  1.00  0.00     0.053 C 
BRANCH   5   6
ATOM      6  C   UNL     1     -45.632 -26.851   6.656  1.00  0.00     0.041 C 
ATOM      7  O   UNL     1     -45.041 -27.927   6.930  1.00  0.00    -0.550 OA
ATOM      8  O   UNL     1     -45.910 -25.941   7.668  1.00  0.00    -0.550 OA
ENDBRANCH   5   6
ENDBRANCH   4   5
ENDBRANCH   3   4
ENDBRANCH   2   3
ENDBRANCH   1   2
BRANCH   1   9
ATOM      9  C   UNL     1     -45.634 -27.497   0.160  1.00  0.00     0.000 C 
BRANCH   9  10
ATOM     10  C   UNL     1     -44.353 -28.289  -0.158  1.00  0.00    -0.000 C 
BRANCH  10  11
ATOM     11  C   UNL     1     -43.210 -27.400  -0.670  1.00  0.00    -0.000 C 
BRANCH  11  12
ATOM     12  C   UNL     1     -41.850 -27.925  -0.195  1.00  0.00    -0.000 C 
BRANCH  12  13
ATOM     13  C   UNL     1     -41.848 -29.456  -0.116  1.00  0.00    -0.003 C 
ATOM     14  C   UNL     1     -40.484 -29.984   0.318  1.00  0.00     0.004 C 
ENDBRANCH  12  13
ENDBRANCH  11  12
ENDBRANCH  10  11
ENDBRANCH   9  10
ENDBRANCH   1   9
TORSDOF 10
ENDMDL
MODEL 2
REMARK VINA RESULT:    -3.871      3.476      6.267
REMARK INTER + INTRA:          -6.700
REMARK INTER:                  -5.720
REMARK INTRA:                  -0.979
REMARK UNBOUND:                -0.565
REMARK SMILES CCCCCCCCCCCC(=O)[O-]
REMARK SMILES IDX 7 1 8 2 9 3 10 4 11 5 12 6 13 7 14 8 6 9 5 10 4 11 3 12 2 13
REMARK SMILES IDX 1 14
REMARK H PARENT
REMARK Flexibility Score: inf
ROOT
ATOM      1  C   UNL     1     -46.417 -26.580   2.969  1.00  0.00     0.000 C 
ENDROOT
BRANCH   1   2
ATOM      2  C   UNL     1     -45.939 -26.200   1.560  1.00  0.00     0.000 C 
BRANCH   2   3
ATOM      3  C   UNL     1     -46.647 -27.050   0.493  1.00  0.00     0.000 C 
BRANCH   3   4
ATOM      4  C   UNL     1     -45.664 -27.709  -0.487  1.00  0.00     0.006 C 
BRANCH   4   5
ATOM      5  C   UNL     1     -44.358 -28.145   0.190  1.00  0.00     0.053 C 
BRANCH   5   6
ATOM      6  C   UNL     1     -43.180 -27.564  -0.527  1.00  0.00     0.041 C 
ATOM      7  O   UNL     1     -42.013 -27.916  -0.216  1.00  0.00    -0.550 OA
ATOM      8  O   UNL     1     -43.370 -26.596  -1.506  1.00  0.00    -0.550 OA
ENDBRANCH   5   6
ENDBRANCH   4   5
ENDBRANCH   3   4
ENDBRANCH   2   3
ENDBRANCH   1   2
BRANCH   1   9
ATOM      9  C   UNL     1     -46.968 -28.015   3.050  1.00  0.00     0.000 C 
BRANCH   9  10
ATOM     10  C   UNL     1     -45.998 -29.053   3.644  1.00  0.00    -0.000 C 
BRANCH  10  11
ATOM     11  C   UNL     1     -46.334 -29.425   5.095  1.00  0.00    -0.000 C 
BRANCH  11  12
ATOM     12  C   UNL     1     -45.195 -29.026   6.042  1.00  0.00    -0.000 C 
BRANCH  12  13
ATOM     13  C   UNL     1     -45.664 -27.976   7.056  1.00  0.00    -0.003 C 
ATOM     14  C   UNL     1     -45.558 -26.567   6.480  1.00  0.00     0.004 C 
ENDBRANCH  12  13
ENDBRANCH  11  12
ENDBRANCH  10  11
ENDBRANCH   9  10
ENDBRANCH   1   9
TORSDOF 10
ENDMDL
MODEL 3
REMARK VINA RESULT:    -3.760      3.380      6.389
REMARK INTER + INTRA:          -6.523
REMARK INTER:                  -5.896
REMARK INTRA:                  -0.626
REMARK UNBOUND:                -0.565
REMARK SMILES CCCCCCCCCCCC(=O)[O-]
REMARK SMILES IDX 7 1 8 2 9 3 10 4 11 5 12 6 13 7 14 8 6 9 5 10 4 11 3 12 2 13
REMARK SMILES IDX 1 14
REMARK H PARENT
REMARK Flexibility Score: inf
ROOT
ATOM      1  C   UNL     1     -46.139 -25.888   1.689  1.00  0.00     0.000 C 
ENDROOT
BRANCH   1   2
ATOM      2  C   UNL     1     -45.166 -26.942   1.141  1.00  0.00     0.000 C 
BRANCH   2   3
ATOM      3  C   UNL     1     -45.679 -27.525  -0.185  1.00  0.00     0.000 C 
BRANCH   3   4
ATOM      4  C   UNL     1     -44.543 -27.871  -1.160  1.00  0.00     0.006 C 
BRANCH   4   5
ATOM      5  C   UNL     1     -43.196 -27.276  -0.730  1.00  0.00     0.053 C 
BRANCH   5   6
ATOM      6  C   UNL     1     -42.247 -28.366  -0.338  1.00  0.00     0.041 C 
ATOM      7  O   UNL     1     -41.045 -28.095  -0.079  1.00  0.00    -0.550 OA
ATOM      8  O   UNL     1     -42.678 -29.686  -0.307  1.00  0.00    -0.550 OA
ENDBRANCH   5   6
ENDBRANCH   4   5
ENDBRANCH   3   4
ENDBRANCH   2   3
ENDBRANCH   1   2
BRANCH   1   9
ATOM      9  C   UNL     1     -47.079 -26.445   2.774  1.00  0.00     0.000 C 
BRANCH   9  10
ATOM     10  C   UNL     1     -46.653 -27.798   3.371  1.00  0.00    -0.000 C 
BRANCH  10  11
ATOM     11  C   UNL     1     -46.753 -27.834   4.904  1.00  0.00    -0.000 C 
BRANCH  11  12
ATOM     12  C   UNL     1     -46.066 -26.614   5.528  1.00  0.00    -0.000 C 
BRANCH  12  13
ATOM     13  C   UNL     1     -45.375 -26.984   6.845  1.00  0.00    -0.003 C 
ATOM     14  C   UNL     1     -45.106 -28.483   6.925  1.00  0.00     0.004 C 
ENDBRANCH  12  13
ENDBRANCH  11  12
ENDBRANCH  10  11
ENDBRANCH   9  10
ENDBRANCH   1   9
TORSDOF 10
ENDMDL
MODEL 4
REMARK VINA RESULT:    -3.669      4.398      7.028
REMARK INTER + INTRA:          -6.379
REMARK INTER:                  -5.585
REMARK INTRA:                  -0.794
REMARK UNBOUND:                -0.565
REMARK SMILES CCCCCCCCCCCC(=O)[O-]
REMARK SMILES IDX 7 1 8 2 9 3 10 4 11 5 12 6 13 7 14 8 6 9 5 10 4 11 3 12 2 13
REMARK SMILES IDX 1 14
REMARK H PARENT
REMARK Flexibility Score: inf
ROOT
ATOM      1  C   UNL     1     -44.843 -26.180   1.124  1.00  0.00     0.000 C 
ENDROOT
BRANCH   1   2
ATOM      2  C   UNL     1     -44.111 -27.137   0.171  1.00  0.00     0.000 C 
BRANCH   2   3
ATOM      3  C   UNL     1     -44.669 -28.564   0.292  1.00  0.00     0.000 C 
BRANCH   3   4
ATOM      4  C   UNL     1     -44.991 -29.192  -1.072  1.00  0.00     0.006 C 
BRANCH   4   5
ATOM      5  C   UNL     1     -46.079 -28.423  -1.834  1.00  0.00     0.053 C 
BRANCH   5   6
ATOM      6  C   UNL     1     -45.582 -28.020  -3.188  1.00  0.00     0.041 C 
ATOM      7  O   UNL     1     -45.777 -28.768  -4.181  1.00  0.00    -0.550 OA
ATOM      8  O   UNL     1     -44.862 -26.843  -3.342  1.00  0.00    -0.550 OA
ENDBRANCH   5   6
ENDBRANCH   4   5
ENDBRANCH   3   4
ENDBRANCH   2   3
ENDBRANCH   1   2
BRANCH   1   9
ATOM      9  C   UNL     1     -46.223 -26.705   1.560  1.00  0.00     0.000 C 
BRANCH   9  10
ATOM     10  C   UNL     1     -46.428 -26.810   3.082  1.00  0.00    -0.000 C 
BRANCH  10  11
ATOM     11  C   UNL     1     -46.197 -28.230   3.621  1.00  0.00    -0.000 C 
BRANCH  11  12
ATOM     12  C   UNL     1     -46.101 -28.228   5.151  1.00  0.00    -0.000 C 
BRANCH  12  13
ATOM     13  C   UNL     1     -46.020 -26.798   5.697  1.00  0.00    -0.003 C 
ATOM     14  C   UNL     1     -45.412 -26.775   7.095  1.00  0.00     0.004 C 
ENDBRANCH  12  13
ENDBRANCH  11  12
ENDBRANCH  10  11
ENDBRANCH   9  10
ENDBRANCH   1   9
TORSDOF 10
ENDMDL
MODEL 5
REMARK VINA RESULT:    -3.643      7.085      9.317
REMARK INTER + INTRA:          -6.338
REMARK INTER:                  -5.844
REMARK INTRA:                  -0.494
REMARK UNBOUND:                -0.565
REMARK SMILES CCCCCCCCCCCC(=O)[O-]
REMARK SMILES IDX 7 1 8 2 9 3 10 4 11 5 12 6 13 7 14 8 6 9 5 10 4 11 3 12 2 13
REMARK SMILES IDX 1 14
REMARK H PARENT
REMARK Flexibility Score: inf
ROOT
ATOM      1  C   UNL     1     -45.738 -28.535  -3.449  1.00  0.00     0.000 C 
ENDROOT
BRANCH   1   2
ATOM      2  C   UNL     1     -45.272 -27.353  -4.312  1.00  0.00     0.000 C 
BRANCH   2   3
ATOM      3  C   UNL     1     -45.820 -27.470  -5.743  1.00  0.00     0.000 C 
BRANCH   3   4
ATOM      4  C   UNL     1     -44.713 -27.433  -6.807  1.00  0.00     0.006 C 
BRANCH   4   5
ATOM      5  C   UNL     1     -44.171 -28.828  -7.144  1.00  0.00     0.053 C 
BRANCH   5   6
ATOM      6  C   UNL     1     -43.002 -28.724  -8.073  1.00  0.00     0.041 C 
ATOM      7  O   UNL     1     -43.172 -28.811  -9.317  1.00  0.00    -0.550 OA
ATOM      8  O   UNL     1     -41.719 -28.579  -7.561  1.00  0.00    -0.550 OA
ENDBRANCH   5   6
ENDBRANCH   4   5
ENDBRANCH   3   4
ENDBRANCH   2   3
ENDBRANCH   1   2
BRANCH   1   9
ATOM      9  C   UNL     1     -45.463 -28.327  -1.948  1.00  0.00     0.000 C 
BRANCH   9  10
ATOM     10  C   UNL     1     -44.673 -29.461  -1.269  1.00  0.00    -0.000 C 
BRANCH  10  11
ATOM     11  C   UNL     1     -43.803 -28.970  -0.103  1.00  0.00    -0.000 C 
BRANCH  11  12
ATOM     12  C   UNL     1     -42.952 -27.765  -0.521  1.00  0.00    -0.000 C 
BRANCH  12  13
ATOM     13  C   UNL     1     -41.462 -28.031  -0.276  1.00  0.00    -0.003 C 
ATOM     14  C   UNL     1     -41.207 -29.506   0.020  1.00  0.00     0.004 C 
ENDBRANCH  12  13
ENDBRANCH  11  12
ENDBRANCH  10  11
ENDBRANCH   9  10
ENDBRANCH   1   9
TORSDOF 10
ENDMDL
MODEL 6
REMARK VINA RESULT:    -3.637      4.416      7.026
REMARK INTER + INTRA:          -6.328
REMARK INTER:                  -5.563
REMARK INTRA:                  -0.766
REMARK UNBOUND:                -0.565
REMARK SMILES CCCCCCCCCCCC(=O)[O-]
REMARK SMILES IDX 7 1 8 2 9 3 10 4 11 5 12 6 13 7 14 8 6 9 5 10 4 11 3 12 2 13
REMARK SMILES IDX 1 14
REMARK H PARENT
REMARK Flexibility Score: inf
ROOT
ATOM      1  C   UNL     1     -43.765 -27.130   0.153  1.00  0.00     0.000 C 
ENDROOT
BRANCH   1   2
ATOM      2  C   UNL     1     -43.329 -28.511  -0.357  1.00  0.00     0.000 C 
BRANCH   2   3
ATOM      3  C   UNL     1     -44.519 -29.482  -0.396  1.00  0.00     0.000 C 
BRANCH   3   4
ATOM      4  C   UNL     1     -44.898 -29.899  -1.825  1.00  0.00     0.006 C 
BRANCH   4   5
ATOM      5  C   UNL     1     -46.108 -29.124  -2.365  1.00  0.00     0.053 C 
BRANCH   5   6
ATOM      6  C   UNL     1     -45.685 -28.191  -3.456  1.00  0.00     0.041 C 
ATOM      7  O   UNL     1     -45.897 -28.488  -4.660  1.00  0.00    -0.550 OA
ATOM      8  O   UNL     1     -45.013 -27.016  -3.143  1.00  0.00    -0.550 OA
ENDBRANCH   5   6
ENDBRANCH   4   5
ENDBRANCH   3   4
ENDBRANCH   2   3
ENDBRANCH   1   2
BRANCH   1   9
ATOM      9  C   UNL     1     -45.211 -27.114   0.684  1.00  0.00     0.000 C 
BRANCH   9  10
ATOM     10  C   UNL     1     -45.504 -26.033   1.739  1.00  0.00    -0.000 C 
BRANCH  10  11
ATOM     11  C   UNL     1     -46.691 -26.388   2.647  1.00  0.00    -0.000 C 
BRANCH  11  12
ATOM     12  C   UNL     1     -46.380 -27.621   3.502  1.00  0.00    -0.000 C 
BRANCH  12  13
ATOM     13  C   UNL     1     -46.172 -27.235   4.971  1.00  0.00    -0.003 C 
ATOM     14  C   UNL     1     -45.580 -28.393   5.768  1.00  0.00     0.004 C 
ENDBRANCH  12  13
ENDBRANCH  11  12
ENDBRANCH  10  11
ENDBRANCH   9  10
ENDBRANCH   1   9
TORSDOF 10
ENDMDL
MODEL 7
REMARK VINA RESULT:    -3.502      7.032      9.350
REMARK INTER + INTRA:          -6.114
REMARK INTER:                  -5.485
REMARK INTRA:                  -0.629
REMARK UNBOUND:                -0.565
REMARK SMILES CCCCCCCCCCCC(=O)[O-]
REMARK SMILES IDX 7 1 8 2 9 3 10 4 11 5 12 6 13 7 14 8 6 9 5 10 4 11 3 12 2 13
REMARK SMILES IDX 1 14
REMARK H PARENT
REMARK Flexibility Score: inf
ROOT
ATOM      1  C   UNL     1     -45.744 -28.884  -4.387  1.00  0.00     0.000 C 
ENDROOT
BRANCH   1   2
ATOM      2  C   UNL     1     -45.337 -27.528  -4.982  1.00  0.00     0.000 C 
BRANCH   2   3
ATOM      3  C   UNL     1     -46.008 -27.305  -6.347  1.00  0.00     0.000 C 
BRANCH   3   4
ATOM      4  C   UNL     1     -45.388 -28.164  -7.459  1.00  0.00     0.006 C 
BRANCH   4   5
ATOM      5  C   UNL     1     -43.963 -27.725  -7.820  1.00  0.00     0.053 C 
BRANCH   5   6
ATOM      6  C   UNL     1     -43.002 -28.855  -7.617  1.00  0.00     0.041 C 
ATOM      7  O   UNL     1     -43.410 -29.962  -7.177  1.00  0.00    -0.550 OA
ATOM      8  O   UNL     1     -41.649 -28.670  -7.868  1.00  0.00    -0.550 OA
ENDBRANCH   5   6
ENDBRANCH   4   5
ENDBRANCH   3   4
ENDBRANCH   2   3
ENDBRANCH   1   2
BRANCH   1   9
ATOM      9  C   UNL     1     -46.185 -28.786  -2.915  1.00  0.00     0.000 C 
BRANCH   9  10
ATOM     10  C   UNL     1     -45.039 -28.841  -1.887  1.00  0.00    -0.000 C 
BRANCH  10  11
ATOM     11  C   UNL     1     -45.145 -27.748  -0.814  1.00  0.00    -0.000 C 
BRANCH  11  12
ATOM     12  C   UNL     1     -43.762 -27.388  -0.258  1.00  0.00    -0.000 C 
BRANCH  12  13
ATOM     13  C   UNL     1     -42.818 -28.595  -0.306  1.00  0.00    -0.003 C 
ATOM     14  C   UNL     1     -41.358 -28.155  -0.273  1.00  0.00     0.004 C 
ENDBRANCH  12  13
ENDBRANCH  11  12
ENDBRANCH  10  11
ENDBRANCH   9  10
ENDBRANCH   1   9
TORSDOF 10
ENDMDL
MODEL 8
REMARK VINA RESULT:    -3.340      5.410      6.789
REMARK INTER + INTRA:          -5.858
REMARK INTER:                  -5.140
REMARK INTRA:                  -0.718
REMARK UNBOUND:                -0.565
REMARK SMILES CCCCCCCCCCCC(=O)[O-]
REMARK SMILES IDX 7 1 8 2 9 3 10 4 11 5 12 6 13 7 14 8 6 9 5 10 4 11 3 12 2 13
REMARK SMILES IDX 1 14
REMARK H PARENT
REMARK Flexibility Score: inf
ROOT
ATOM      1  C   UNL     1     -45.823 -28.955  -3.701  1.00  0.00     0.000 C 
ENDROOT
BRANCH   1   2
ATOM      2  C   UNL     1     -46.863 -28.604  -2.627  1.00  0.00     0.000 C 
BRANCH   2   3
ATOM      3  C   UNL     1     -46.361 -28.995  -1.228  1.00  0.00     0.000 C 
BRANCH   3   4
ATOM      4  C   UNL     1     -44.861 -29.326  -1.208  1.00  0.00     0.006 C 
BRANCH   4   5
ATOM      5  C   UNL     1     -44.129 -28.680  -0.024  1.00  0.00     0.053 C 
BRANCH   5   6
ATOM      6  C   UNL     1     -43.993 -27.205  -0.237  1.00  0.00     0.041 C 
ATOM      7  O   UNL     1     -44.366 -26.399   0.655  1.00  0.00    -0.550 OA
ATOM      8  O   UNL     1     -43.498 -26.719  -1.441  1.00  0.00    -0.550 OA
ENDBRANCH   5   6
ENDBRANCH   4   5
ENDBRANCH   3   4
ENDBRANCH   2   3
ENDBRANCH   1   2
BRANCH   1   9
ATOM      9  C   UNL     1     -45.541 -27.790  -4.668  1.00  0.00     0.000 C 
BRANCH   9  10
ATOM     10  C   UNL     1     -46.600 -27.586  -5.766  1.00  0.00    -0.000 C 
BRANCH  10  11
ATOM     11  C   UNL     1     -45.986 -27.269  -7.138  1.00  0.00    -0.000 C 
BRANCH  11  12
ATOM     12  C   UNL     1     -44.458 -27.173  -7.048  1.00  0.00    -0.000 C 
BRANCH  12  13
ATOM     13  C   UNL     1     -43.791 -27.889  -8.226  1.00  0.00    -0.003 C 
ATOM     14  C   UNL     1     -42.481 -28.547  -7.802  1.00  0.00     0.004 C 
ENDBRANCH  12  13
ENDBRANCH  11  12
ENDBRANCH  10  11
ENDBRANCH   9  10
ENDBRANCH   1   9
TORSDOF 10
ENDMDL
MODEL 9
REMARK VINA RESULT:    -3.246      6.696      8.174
REMARK INTER + INTRA:          -5.709
REMARK INTER:                  -4.667
REMARK INTRA:                  -1.041
REMARK UNBOUND:                -0.565
REMARK SMILES CCCCCCCCCCCC(=O)[O-]
REMARK SMILES IDX 7 1 8 2 9 3 10 4 11 5 12 6 13 7 14 8 6 9 5 10 4 11 3 12 2 13
REMARK SMILES IDX 1 14
REMARK H PARENT
REMARK Flexibility Score: inf
ROOT
ATOM      1  C   UNL     1     -45.249 -27.580  -5.732  1.00  0.00     0.000 C 
ENDROOT
BRANCH   1   2
ATOM      2  C   UNL     1     -45.668 -28.927  -5.127  1.00  0.00     0.000 C 
BRANCH   2   3
ATOM      3  C   UNL     1     -46.809 -28.742  -4.114  1.00  0.00     0.000 C 
BRANCH   3   4
ATOM      4  C   UNL     1     -46.614 -29.581  -2.842  1.00  0.00     0.006 C 
BRANCH   4   5
ATOM      5  C   UNL     1     -45.322 -29.228  -2.094  1.00  0.00     0.053 C 
BRANCH   5   6
ATOM      6  C   UNL     1     -45.319 -27.781  -1.713  1.00  0.00     0.041 C 
ATOM      7  O   UNL     1     -44.474 -26.995  -2.217  1.00  0.00    -0.550 OA
ATOM      8  O   UNL     1     -46.218 -27.310  -0.764  1.00  0.00    -0.550 OA
ENDBRANCH   5   6
ENDBRANCH   4   5
ENDBRANCH   3   4
ENDBRANCH   2   3
ENDBRANCH   1   2
BRANCH   1   9
ATOM      9  C   UNL     1     -46.144 -27.144  -6.907  1.00  0.00     0.000 C 
BRANCH   9  10
ATOM     10  C   UNL     1     -46.126 -28.088  -8.123  1.00  0.00    -0.000 C 
BRANCH  10  11
ATOM     11  C   UNL     1     -44.882 -27.903  -9.006  1.00  0.00    -0.000 C 
BRANCH  11  12
ATOM     12  C   UNL     1     -44.246 -29.256  -9.348  1.00  0.00    -0.000 C 
BRANCH  12  13
ATOM     13  C   UNL     1     -43.268 -29.697  -8.254  1.00  0.00    -0.003 C 
ATOM     14  C   UNL     1     -42.341 -28.555  -7.848  1.00  0.00     0.004 C 
ENDBRANCH  12  13
ENDBRANCH  11  12
ENDBRANCH  10  11
ENDBRANCH   9  10
ENDBRANCH   1   9
TORSDOF 10
ENDMDL
