MODEL 1
REMARK VINA RESULT:     6.557      0.000      0.000
REMARK INTER + INTRA:          16.903
REMARK INTER:                  17.291
REMARK INTRA:                  -0.388
REMARK UNBOUND:                -0.388
REMARK SMILES CCCCCCCCCCCCCCCCCCCCCCCCCCCCCC(=O)[O-]
REMARK SMILES IDX 16 1 17 2 18 3 19 4 20 5 21 6 22 7 23 8 24 9 25 10 26 11
REMARK SMILES IDX 27 12 28 13 29 14 30 15 31 16 32 17 15 18 14 19 13 20 12 21
REMARK SMILES IDX 11 22 10 23 9 24 8 25 7 26 6 27 5 28 4 29 3 30 2 31 1 32
REMARK H PARENT
REMARK Flexibility Score: inf
ROOT
ATOM      1  C   UNL     1       3.046  62.218  -7.662  1.00  0.00     0.000 C 
ENDROOT
BRANCH   1   2
ATOM      2  C   UNL     1       3.201  60.815  -7.048  1.00  0.00     0.000 C 
BRANCH   2   3
ATOM      3  C   UNL     1       1.851  60.165  -6.703  1.00  0.00     0.000 C 
BRANCH   3   4
ATOM      4  C   UNL     1       1.569  58.909  -7.547  1.00  0.00     0.000 C 
BRANCH   4   5
ATOM      5  C   UNL     1       0.140  58.875  -8.118  1.00  0.00     0.000 C 
BRANCH   5   6
ATOM      6  C   UNL     1      -0.988  59.033  -7.082  1.00  0.00     0.000 C 
BRANCH   6   7
ATOM      7  C   UNL     1      -2.389  59.054  -7.718  1.00  0.00     0.000 C 
BRANCH   7   8
ATOM      8  C   UNL     1      -3.215  60.274  -7.272  1.00  0.00     0.000 C 
BRANCH   8   9
ATOM      9  C   UNL     1      -2.819  60.770  -5.870  1.00  0.00     0.000 C 
BRANCH   9  10
ATOM     10  C   UNL     1      -3.959  60.631  -4.843  1.00  0.00     0.000 C 
BRANCH  10  11
ATOM     11  C   UNL     1      -3.873  59.385  -3.941  1.00  0.00     0.000 C 
BRANCH  11  12
ATOM     12  C   UNL     1      -2.490  59.134  -3.313  1.00  0.00     0.000 C 
BRANCH  12  13
ATOM     13  C   UNL     1      -1.572  60.375  -3.319  1.00  0.00     0.006 C 
BRANCH  13  14
ATOM     14  C   UNL     1      -0.200  60.089  -2.697  1.00  0.00     0.053 C 
BRANCH  14  15
ATOM     15  C   UNL     1       0.887  60.332  -3.696  1.00  0.00     0.041 C 
ATOM     16  O   UNL     1       1.648  59.391  -4.047  1.00  0.00    -0.550 OA
ATOM     17  O   UNL     1       1.021  61.581  -4.289  1.00  0.00    -0.550 OA
ENDBRANCH  14  15
ENDBRANCH  13  14
ENDBRANCH  12  13
ENDBRANCH  11  12
ENDBRANCH  10  11
ENDBRANCH   9  10
ENDBRANCH   8   9
ENDBRANCH   7   8
ENDBRANCH   6   7
ENDBRANCH   5   6
ENDBRANCH   4   5
ENDBRANCH   3   4
ENDBRANCH   2   3
ENDBRANCH   1   2
BRANCH   1  18
ATOM     18  C   UNL     1       1.955  63.051  -6.970  1.00  0.00     0.000 C 
BRANCH  18  19
ATOM     19  C   UNL     1       2.241  64.561  -7.034  1.00  0.00     0.000 C 
BRANCH  19  20
ATOM     20  C   UNL     1       3.493  64.966  -6.239  1.00  0.00     0.000 C 
BRANCH  20  21
ATOM     21  C   UNL     1       3.183  65.985  -5.128  1.00  0.00     0.000 C 
BRANCH  21  22
ATOM     22  C   UNL     1       3.252  67.446  -5.612  1.00  0.00     0.000 C 
BRANCH  22  23
ATOM     23  C   UNL     1       1.932  68.235  -5.511  1.00  0.00     0.000 C 
BRANCH  23  24
ATOM     24  C   UNL     1       0.790  67.608  -6.324  1.00  0.00    -0.000 C 
BRANCH  24  25
ATOM     25  C   UNL     1      -0.020  68.687  -7.057  1.00  0.00    -0.000 C 
BRANCH  25  26
ATOM     26  C   UNL     1      -1.455  68.812  -6.522  1.00  0.00    -0.000 C 
BRANCH  26  27
ATOM     27  C   UNL     1      -1.585  69.881  -5.421  1.00  0.00    -0.000 C 
BRANCH  27  28
ATOM     28  C   UNL     1      -3.039  70.375  -5.255  1.00  0.00    -0.000 C 
BRANCH  28  29
ATOM     29  C   UNL     1      -3.976  69.933  -6.392  1.00  0.00    -0.000 C 
BRANCH  29  30
ATOM     30  C   UNL     1      -4.704  71.108  -7.060  1.00  0.00    -0.000 C 
BRANCH  30  31
ATOM     31  C   UNL     1      -4.945  72.247  -6.061  1.00  0.00    -0.003 C 
ATOM     32  C   UNL     1      -4.998  73.598  -6.769  1.00  0.00     0.004 C 
ENDBRANCH  30  31
ENDBRANCH  29  30
ENDBRANCH  28  29
ENDBRANCH  27  28
ENDBRANCH  26  27
ENDBRANCH  25  26
ENDBRANCH  24  25
ENDBRANCH  23  24
ENDBRANCH  22  23
ENDBRANCH  21  22
ENDBRANCH  20  21
ENDBRANCH  19  20
ENDBRANCH  18  19
ENDBRANCH   1  18
TORSDOF 28
ENDMDL
MODEL 2
REMARK VINA RESULT:     7.368      1.784      3.925
REMARK INTER + INTRA:          19.040
REMARK INTER:                  19.509
REMARK INTRA:                  -0.470
REMARK UNBOUND:                -0.388
REMARK SMILES CCCCCCCCCCCCCCCCCCCCCCCCCCCCCC(=O)[O-]
REMARK SMILES IDX 16 1 17 2 18 3 19 4 20 5 21 6 22 7 23 8 24 9 25 10 26 11
REMARK SMILES IDX 27 12 28 13 29 14 30 15 31 16 32 17 15 18 14 19 13 20 12 21
REMARK SMILES IDX 11 22 10 23 9 24 8 25 7 26 6 27 5 28 4 29 3 30 2 31 1 32
REMARK H PARENT
REMARK Flexibility Score: inf
ROOT
ATOM      1  C   UNL     1       0.287  59.786  -6.366  1.00  0.00     0.000 C 
ENDROOT
BRANCH   1   2
ATOM      2  C   UNL     1      -1.088  59.105  -6.487  1.00  0.00     0.000 C 
BRANCH   2   3
ATOM      3  C   UNL     1      -1.514  58.880  -7.947  1.00  0.00     0.000 C 
BRANCH   3   4
ATOM      4  C   UNL     1      -3.042  58.900  -8.124  1.00  0.00     0.000 C 
BRANCH   4   5
ATOM      5  C   UNL     1      -3.640  60.317  -8.051  1.00  0.00     0.000 C 
BRANCH   5   6
ATOM      6  C   UNL     1      -4.722  60.521  -6.976  1.00  0.00     0.000 C 
BRANCH   6   7
ATOM      7  C   UNL     1      -4.909  59.290  -6.070  1.00  0.00     0.000 C 
BRANCH   7   8
ATOM      8  C   UNL     1      -4.712  59.625  -4.582  1.00  0.00     0.000 C 
BRANCH   8   9
ATOM      9  C   UNL     1      -3.514  58.879  -3.966  1.00  0.00     0.000 C 
BRANCH   9  10
ATOM     10  C   UNL     1      -2.161  59.515  -4.334  1.00  0.00     0.000 C 
BRANCH  10  11
ATOM     11  C   UNL     1      -1.587  60.481  -3.279  1.00  0.00     0.000 C 
BRANCH  11  12
ATOM     12  C   UNL     1      -0.120  60.221  -2.892  1.00  0.00     0.000 C 
BRANCH  12  13
ATOM     13  C   UNL     1       0.252  60.735  -1.485  1.00  0.00     0.006 C 
BRANCH  13  14
ATOM     14  C   UNL     1       1.526  61.588  -1.492  1.00  0.00     0.053 C 
BRANCH  14  15
ATOM     15  C   UNL     1       1.512  62.557  -0.352  1.00  0.00     0.041 C 
ATOM     16  O   UNL     1       2.134  62.294   0.712  1.00  0.00    -0.550 OA
ATOM     17  O   UNL     1       0.866  63.778  -0.485  1.00  0.00    -0.550 OA
ENDBRANCH  14  15
ENDBRANCH  13  14
ENDBRANCH  12  13
ENDBRANCH  11  12
ENDBRANCH  10  11
ENDBRANCH   9  10
ENDBRANCH   8   9
ENDBRANCH   7   8
ENDBRANCH   6   7
ENDBRANCH   5   6
ENDBRANCH   4   5
ENDBRANCH   3   4
ENDBRANCH   2   3
ENDBRANCH   1   2
BRANCH   1  18
ATOM     18  C   UNL     1       1.425  58.928  -6.943  1.00  0.00     0.000 C 
BRANCH  18  19
ATOM     19  C   UNL     1       2.718  59.034  -6.115  1.00  0.00     0.000 C 
BRANCH  19  20
ATOM     20  C   UNL     1       3.764  59.958  -6.758  1.00  0.00     0.000 C 
BRANCH  20  21
ATOM     21  C   UNL     1       3.126  61.088  -7.584  1.00  0.00     0.000 C 
BRANCH  21  22
ATOM     22  C   UNL     1       2.875  62.369  -6.764  1.00  0.00     0.000 C 
BRANCH  22  23
ATOM     23  C   UNL     1       2.546  63.626  -7.592  1.00  0.00     0.000 C 
BRANCH  23  24
ATOM     24  C   UNL     1       1.844  64.721  -6.776  1.00  0.00    -0.000 C 
BRANCH  24  25
ATOM     25  C   UNL     1       2.735  65.964  -6.642  1.00  0.00    -0.000 C 
BRANCH  25  26
ATOM     26  C   UNL     1       2.067  67.083  -5.829  1.00  0.00    -0.000 C 
BRANCH  26  27
ATOM     27  C   UNL     1       1.003  67.848  -6.638  1.00  0.00    -0.000 C 
BRANCH  27  28
ATOM     28  C   UNL     1      -0.074  68.483  -5.733  1.00  0.00    -0.000 C 
BRANCH  28  29
ATOM     29  C   UNL     1      -1.301  69.002  -6.502  1.00  0.00    -0.000 C 
BRANCH  29  30
ATOM     30  C   UNL     1      -2.413  69.519  -5.579  1.00  0.00    -0.000 C 
BRANCH  30  31
ATOM     31  C   UNL     1      -3.371  70.448  -6.336  1.00  0.00    -0.003 C 
ATOM     32  C   UNL     1      -4.734  69.791  -6.534  1.00  0.00     0.004 C 
ENDBRANCH  30  31
ENDBRANCH  29  30
ENDBRANCH  28  29
ENDBRANCH  27  28
ENDBRANCH  26  27
ENDBRANCH  25  26
ENDBRANCH  24  25
ENDBRANCH  23  24
ENDBRANCH  22  23
ENDBRANCH  21  22
ENDBRANCH  20  21
ENDBRANCH  19  20
ENDBRANCH  18  19
ENDBRANCH   1  18
TORSDOF 28
ENDMDL
MODEL 3
REMARK VINA RESULT:     7.937      2.836      9.127
REMARK INTER + INTRA:          20.541
REMARK INTER:                  22.268
REMARK INTRA:                  -1.727
REMARK UNBOUND:                -0.388
REMARK SMILES CCCCCCCCCCCCCCCCCCCCCCCCCCCCCC(=O)[O-]
REMARK SMILES IDX 16 1 17 2 18 3 19 4 20 5 21 6 22 7 23 8 24 9 25 10 26 11
REMARK SMILES IDX 27 12 28 13 29 14 30 15 31 16 32 17 15 18 14 19 13 20 12 21
REMARK SMILES IDX 11 22 10 23 9 24 8 25 7 26 6 27 5 28 4 29 3 30 2 31 1 32
REMARK H PARENT
REMARK Flexibility Score: inf
ROOT
ATOM      1  C   UNL     1      -0.852  59.086  -6.362  1.00  0.00     0.000 C 
ENDROOT
BRANCH   1   2
ATOM      2  C   UNL     1       0.632  58.935  -6.740  1.00  0.00     0.000 C 
BRANCH   2   3
ATOM      3  C   UNL     1       1.581  59.352  -5.605  1.00  0.00     0.000 C 
BRANCH   3   4
ATOM      4  C   UNL     1       2.004  60.828  -5.703  1.00  0.00     0.000 C 
BRANCH   4   5
ATOM      5  C   UNL     1       3.343  61.023  -6.438  1.00  0.00     0.000 C 
BRANCH   5   6
ATOM      6  C   UNL     1       3.228  61.425  -7.920  1.00  0.00     0.000 C 
BRANCH   6   7
ATOM      7  C   UNL     1       2.526  62.780  -8.122  1.00  0.00     0.000 C 
BRANCH   7   8
ATOM      8  C   UNL     1       2.613  63.675  -6.873  1.00  0.00     0.000 C 
BRANCH   8   9
ATOM      9  C   UNL     1       2.320  65.153  -7.188  1.00  0.00     0.000 C 
BRANCH   9  10
ATOM     10  C   UNL     1       2.934  66.117  -6.157  1.00  0.00     0.000 C 
BRANCH  10  11
ATOM     11  C   UNL     1       2.142  67.420  -5.932  1.00  0.00     0.000 C 
BRANCH  11  12
ATOM     12  C   UNL     1       0.848  67.541  -6.757  1.00  0.00     0.000 C 
BRANCH  12  13
ATOM     13  C   UNL     1       0.210  68.947  -6.707  1.00  0.00     0.006 C 
BRANCH  13  14
ATOM     14  C   UNL     1      -1.320  68.891  -6.616  1.00  0.00     0.053 C 
BRANCH  14  15
ATOM     15  C   UNL     1      -1.776  69.283  -5.246  1.00  0.00     0.041 C 
ATOM     16  O   UNL     1      -2.920  69.784  -5.078  1.00  0.00    -0.550 OA
ATOM     17  O   UNL     1      -0.965  69.037  -4.146  1.00  0.00    -0.550 OA
ENDBRANCH  14  15
ENDBRANCH  13  14
ENDBRANCH  12  13
ENDBRANCH  11  12
ENDBRANCH  10  11
ENDBRANCH   9  10
ENDBRANCH   8   9
ENDBRANCH   7   8
ENDBRANCH   6   7
ENDBRANCH   5   6
ENDBRANCH   4   5
ENDBRANCH   3   4
ENDBRANCH   2   3
ENDBRANCH   1   2
BRANCH   1  18
ATOM     18  C   UNL     1      -1.793  58.881  -7.561  1.00  0.00     0.000 C 
BRANCH  18  19
ATOM     19  C   UNL     1      -2.411  60.201  -8.054  1.00  0.00     0.000 C 
BRANCH  19  20
ATOM     20  C   UNL     1      -3.147  60.967  -6.944  1.00  0.00     0.000 C 
BRANCH  20  21
ATOM     21  C   UNL     1      -4.651  60.645  -6.902  1.00  0.00     0.000 C 
BRANCH  21  22
ATOM     22  C   UNL     1      -5.117  60.114  -5.532  1.00  0.00     0.000 C 
BRANCH  22  23
ATOM     23  C   UNL     1      -4.354  58.882  -5.010  1.00  0.00     0.000 C 
BRANCH  23  24
ATOM     24  C   UNL     1      -3.631  59.138  -3.679  1.00  0.00    -0.000 C 
BRANCH  24  25
ATOM     25  C   UNL     1      -2.831  60.448  -3.732  1.00  0.00    -0.000 C 
BRANCH  25  26
ATOM     26  C   UNL     1      -1.313  60.210  -3.759  1.00  0.00    -0.000 C 
BRANCH  26  27
ATOM     27  C   UNL     1      -0.622  60.650  -2.456  1.00  0.00    -0.000 C 
BRANCH  27  28
ATOM     28  C   UNL     1       0.864  60.232  -2.413  1.00  0.00    -0.000 C 
BRANCH  28  29
ATOM     29  C   UNL     1       1.454  60.188  -0.992  1.00  0.00    -0.000 C 
BRANCH  29  30
ATOM     30  C   UNL     1       0.591  60.931   0.038  1.00  0.00    -0.000 C 
BRANCH  30  31
ATOM     31  C   UNL     1       1.429  61.942   0.832  1.00  0.00    -0.003 C 
ATOM     32  C   UNL     1       2.208  62.865  -0.102  1.00  0.00     0.004 C 
ENDBRANCH  30  31
ENDBRANCH  29  30
ENDBRANCH  28  29
ENDBRANCH  27  28
ENDBRANCH  26  27
ENDBRANCH  25  26
ENDBRANCH  24  25
ENDBRANCH  23  24
ENDBRANCH  22  23
ENDBRANCH  21  22
ENDBRANCH  20  21
ENDBRANCH  19  20
ENDBRANCH  18  19
ENDBRANCH   1  18
TORSDOF 28
ENDMDL
MODEL 4
REMARK VINA RESULT:     8.459      3.150      9.019
REMARK INTER + INTRA:          21.918
REMARK INTER:                  22.671
REMARK INTRA:                  -0.753
REMARK UNBOUND:                -0.388
REMARK SMILES CCCCCCCCCCCCCCCCCCCCCCCCCCCCCC(=O)[O-]
REMARK SMILES IDX 16 1 17 2 18 3 19 4 20 5 21 6 22 7 23 8 24 9 25 10 26 11
REMARK SMILES IDX 27 12 28 13 29 14 30 15 31 16 32 17 15 18 14 19 13 20 12 21
REMARK SMILES IDX 11 22 10 23 9 24 8 25 7 26 6 27 5 28 4 29 3 30 2 31 1 32
REMARK H PARENT
REMARK Flexibility Score: inf
ROOT
ATOM      1  C   UNL     1       1.600  60.241  -5.018  1.00  0.00     0.000 C 
ENDROOT
BRANCH   1   2
ATOM      2  C   UNL     1       2.456  58.988  -5.272  1.00  0.00     0.000 C 
BRANCH   2   3
ATOM      3  C   UNL     1       3.737  59.293  -6.065  1.00  0.00     0.000 C 
BRANCH   3   4
ATOM      4  C   UNL     1       3.780  60.742  -6.580  1.00  0.00     0.000 C 
BRANCH   4   5
ATOM      5  C   UNL     1       3.040  60.929  -7.918  1.00  0.00     0.000 C 
BRANCH   5   6
ATOM      6  C   UNL     1       2.199  62.213  -8.032  1.00  0.00     0.000 C 
BRANCH   6   7
ATOM      7  C   UNL     1       2.460  63.206  -6.884  1.00  0.00     0.000 C 
BRANCH   7   8
ATOM      8  C   UNL     1       2.838  64.606  -7.398  1.00  0.00     0.000 C 
BRANCH   8   9
ATOM      9  C   UNL     1       1.605  65.446  -7.778  1.00  0.00     0.000 C 
BRANCH   9  10
ATOM     10  C   UNL     1       1.347  66.607  -6.799  1.00  0.00     0.000 C 
BRANCH  10  11
ATOM     11  C   UNL     1       0.147  67.504  -7.157  1.00  0.00     0.000 C 
BRANCH  11  12
ATOM     12  C   UNL     1       0.385  69.012  -6.960  1.00  0.00     0.000 C 
BRANCH  12  13
ATOM     13  C   UNL     1      -0.466  69.632  -5.830  1.00  0.00     0.006 C 
BRANCH  13  14
ATOM     14  C   UNL     1      -1.743  68.831  -5.554  1.00  0.00     0.053 C 
BRANCH  14  15
ATOM     15  C   UNL     1      -2.939  69.730  -5.577  1.00  0.00     0.041 C 
ATOM     16  O   UNL     1      -3.384  70.221  -4.505  1.00  0.00    -0.550 OA
ATOM     17  O   UNL     1      -3.525  70.078  -6.787  1.00  0.00    -0.550 OA
ENDBRANCH  14  15
ENDBRANCH  13  14
ENDBRANCH  12  13
ENDBRANCH  11  12
ENDBRANCH  10  11
ENDBRANCH   9  10
ENDBRANCH   8   9
ENDBRANCH   7   8
ENDBRANCH   6   7
ENDBRANCH   5   6
ENDBRANCH   4   5
ENDBRANCH   3   4
ENDBRANCH   2   3
ENDBRANCH   1   2
BRANCH   1  18
ATOM     18  C   UNL     1       0.254  60.199  -5.760  1.00  0.00     0.000 C 
BRANCH  18  19
ATOM     19  C   UNL     1       0.060  58.894  -6.551  1.00  0.00     0.000 C 
BRANCH  19  20
ATOM     20  C   UNL     1      -0.525  59.126  -7.953  1.00  0.00     0.000 C 
BRANCH  20  21
ATOM     21  C   UNL     1      -2.054  59.301  -7.934  1.00  0.00     0.000 C 
BRANCH  21  22
ATOM     22  C   UNL     1      -2.682  58.976  -6.565  1.00  0.00     0.000 C 
BRANCH  22  23
ATOM     23  C   UNL     1      -3.373  60.159  -5.860  1.00  0.00     0.000 C 
BRANCH  23  24
ATOM     24  C   UNL     1      -4.538  59.727  -4.957  1.00  0.00    -0.000 C 
BRANCH  24  25
ATOM     25  C   UNL     1      -4.025  58.965  -3.726  1.00  0.00    -0.000 C 
BRANCH  25  26
ATOM     26  C   UNL     1      -2.491  58.972  -3.627  1.00  0.00    -0.000 C 
BRANCH  26  27
ATOM     27  C   UNL     1      -1.961  60.106  -2.730  1.00  0.00    -0.000 C 
BRANCH  27  28
ATOM     28  C   UNL     1      -0.491  60.460  -3.043  1.00  0.00    -0.000 C 
BRANCH  28  29
ATOM     29  C   UNL     1       0.355  60.753  -1.792  1.00  0.00    -0.000 C 
BRANCH  29  30
ATOM     30  C   UNL     1       0.571  62.254  -1.553  1.00  0.00    -0.000 C 
BRANCH  30  31
ATOM     31  C   UNL     1       1.662  62.493  -0.501  1.00  0.00    -0.003 C 
ATOM     32  C   UNL     1       1.347  61.755   0.797  1.00  0.00     0.004 C 
ENDBRANCH  30  31
ENDBRANCH  29  30
ENDBRANCH  28  29
ENDBRANCH  27  28
ENDBRANCH  26  27
ENDBRANCH  25  26
ENDBRANCH  24  25
ENDBRANCH  23  24
ENDBRANCH  22  23
ENDBRANCH  21  22
ENDBRANCH  20  21
ENDBRANCH  19  20
ENDBRANCH  18  19
ENDBRANCH   1  18
TORSDOF 28
ENDMDL
MODEL 5
REMARK VINA RESULT:     9.402      2.263      5.140
REMARK INTER + INTRA:          24.403
REMARK INTER:                  24.555
REMARK INTRA:                  -0.152
REMARK UNBOUND:                -0.388
REMARK SMILES CCCCCCCCCCCCCCCCCCCCCCCCCCCCCC(=O)[O-]
REMARK SMILES IDX 16 1 17 2 18 3 19 4 20 5 21 6 22 7 23 8 24 9 25 10 26 11
REMARK SMILES IDX 27 12 28 13 29 14 30 15 31 16 32 17 15 18 14 19 13 20 12 21
REMARK SMILES IDX 11 22 10 23 9 24 8 25 7 26 6 27 5 28 4 29 3 30 2 31 1 32
REMARK H PARENT
REMARK Flexibility Score: inf
ROOT
ATOM      1  C   UNL     1       3.195  67.036  -4.901  1.00  0.00     0.000 C 
ENDROOT
BRANCH   1   2
ATOM      2  C   UNL     1       3.828  66.046  -5.894  1.00  0.00     0.000 C 
BRANCH   2   3
ATOM      3  C   UNL     1       3.403  64.591  -5.636  1.00  0.00     0.000 C 
BRANCH   3   4
ATOM      4  C   UNL     1       2.659  63.973  -6.834  1.00  0.00     0.000 C 
BRANCH   4   5
ATOM      5  C   UNL     1       2.205  62.525  -6.579  1.00  0.00     0.000 C 
BRANCH   5   6
ATOM      6  C   UNL     1       2.682  61.493  -7.617  1.00  0.00     0.000 C 
BRANCH   6   7
ATOM      7  C   UNL     1       3.135  60.166  -6.981  1.00  0.00     0.000 C 
BRANCH   7   8
ATOM      8  C   UNL     1       2.085  59.594  -6.013  1.00  0.00     0.000 C 
BRANCH   8   9
ATOM      9  C   UNL     1       0.823  59.097  -6.741  1.00  0.00     0.000 C 
BRANCH   9  10
ATOM     10  C   UNL     1      -0.428  59.107  -5.843  1.00  0.00     0.000 C 
BRANCH  10  11
ATOM     11  C   UNL     1      -0.437  60.194  -4.751  1.00  0.00     0.000 C 
BRANCH  11  12
ATOM     12  C   UNL     1      -1.667  60.172  -3.825  1.00  0.00     0.000 C 
BRANCH  12  13
ATOM     13  C   UNL     1      -2.578  58.943  -4.034  1.00  0.00     0.006 C 
BRANCH  13  14
ATOM     14  C   UNL     1      -4.025  59.337  -4.352  1.00  0.00     0.053 C 
BRANCH  14  15
ATOM     15  C   UNL     1      -4.110  59.965  -5.707  1.00  0.00     0.041 C 
ATOM     16  O   UNL     1      -4.180  59.244  -6.738  1.00  0.00    -0.550 OA
ATOM     17  O   UNL     1      -4.176  61.347  -5.830  1.00  0.00    -0.550 OA
ENDBRANCH  14  15
ENDBRANCH  13  14
ENDBRANCH  12  13
ENDBRANCH  11  12
ENDBRANCH  10  11
ENDBRANCH   9  10
ENDBRANCH   8   9
ENDBRANCH   7   8
ENDBRANCH   6   7
ENDBRANCH   5   6
ENDBRANCH   4   5
ENDBRANCH   3   4
ENDBRANCH   2   3
ENDBRANCH   1   2
BRANCH   1  18
ATOM     18  C   UNL     1       2.496  68.212  -5.601  1.00  0.00     0.000 C 
BRANCH  18  19
ATOM     19  C   UNL     1       1.077  67.853  -6.076  1.00  0.00     0.000 C 
BRANCH  19  20
ATOM     20  C   UNL     1       0.189  69.088  -6.293  1.00  0.00     0.000 C 
BRANCH  20  21
ATOM     21  C   UNL     1      -1.003  68.803  -7.222  1.00  0.00     0.000 C 
BRANCH  21  22
ATOM     22  C   UNL     1      -2.367  68.989  -6.529  1.00  0.00     0.000 C 
BRANCH  22  23
ATOM     23  C   UNL     1      -3.528  69.392  -7.460  1.00  0.00     0.000 C 
BRANCH  23  24
ATOM     24  C   UNL     1      -4.634  70.176  -6.739  1.00  0.00    -0.000 C 
BRANCH  24  25
ATOM     25  C   UNL     1      -4.137  71.566  -6.316  1.00  0.00    -0.000 C 
BRANCH  25  26
ATOM     26  C   UNL     1      -2.808  71.506  -5.545  1.00  0.00    -0.000 C 
BRANCH  26  27
ATOM     27  C   UNL     1      -2.944  70.795  -4.187  1.00  0.00    -0.000 C 
BRANCH  27  28
ATOM     28  C   UNL     1      -1.747  69.867  -3.890  1.00  0.00    -0.000 C 
BRANCH  28  29
ATOM     29  C   UNL     1      -0.902  70.312  -2.683  1.00  0.00    -0.000 C 
BRANCH  29  30
ATOM     30  C   UNL     1       0.062  69.223  -2.192  1.00  0.00    -0.000 C 
BRANCH  30  31
ATOM     31  C   UNL     1       1.183  69.825  -1.335  1.00  0.00    -0.003 C 
ATOM     32  C   UNL     1       0.777  71.186  -0.775  1.00  0.00     0.004 C 
ENDBRANCH  30  31
ENDBRANCH  29  30
ENDBRANCH  28  29
ENDBRANCH  27  28
ENDBRANCH  26  27
ENDBRANCH  25  26
ENDBRANCH  24  25
ENDBRANCH  23  24
ENDBRANCH  22  23
ENDBRANCH  21  22
ENDBRANCH  20  21
ENDBRANCH  19  20
ENDBRANCH  18  19
ENDBRANCH   1  18
TORSDOF 28
ENDMDL
