MODEL 1
REMARK VINA RESULT:    -3.556      0.000      0.000
REMARK INTER + INTRA:         -10.613
REMARK INTER:                  -7.713
REMARK INTRA:                  -2.901
REMARK UNBOUND:                -2.901
REMARK SMILES CCCCCCCCCCCCCCCCCCCCCC(=O)[O-]
REMARK SMILES IDX 12 1 11 2 10 3 9 4 8 5 7 6 6 7 5 8 4 9 3 10 2 11 1 12 13 13
REMARK SMILES IDX 14 14 15 15 16 16 17 17 18 18 19 19 20 20 21 21 22 22 23 23
REMARK SMILES IDX 24 24
REMARK H PARENT
REMARK Flexibility Score: inf
ROOT
ATOM      1  C   UNL     1      49.153  33.785  85.882  1.00  0.00     0.000 C 
ENDROOT
BRANCH   1   2
ATOM      2  C   UNL     1      50.552  34.380  85.642  1.00  0.00     0.000 C 
BRANCH   2   3
ATOM      3  C   UNL     1      51.032  35.249  86.817  1.00  0.00     0.000 C 
BRANCH   3   4
ATOM      4  C   UNL     1      52.561  35.354  86.891  1.00  0.00    -0.000 C 
BRANCH   4   5
ATOM      5  C   UNL     1      53.223  34.027  86.500  1.00  0.00    -0.000 C 
BRANCH   5   6
ATOM      6  C   UNL     1      53.580  33.201  87.742  1.00  0.00    -0.000 C 
BRANCH   6   7
ATOM      7  C   UNL     1      52.873  31.838  87.719  1.00  0.00    -0.000 C 
BRANCH   7   8
ATOM      8  C   UNL     1      51.464  31.890  88.331  1.00  0.00    -0.000 C 
BRANCH   8   9
ATOM      9  C   UNL     1      51.470  32.365  89.792  1.00  0.00    -0.000 C 
BRANCH   9  10
ATOM     10  C   UNL     1      51.506  31.172  90.756  1.00  0.00    -0.000 C 
BRANCH  10  11
ATOM     11  C   UNL     1      51.759  31.635  92.195  1.00  0.00    -0.003 C 
ATOM     12  C   UNL     1      50.551  32.381  92.755  1.00  0.00     0.004 C 
ENDBRANCH  10  11
ENDBRANCH   9  10
ENDBRANCH   8   9
ENDBRANCH   7   8
ENDBRANCH   6   7
ENDBRANCH   5   6
ENDBRANCH   4   5
ENDBRANCH   3   4
ENDBRANCH   2   3
ENDBRANCH   1   2
BRANCH   1  13
ATOM     13  C   UNL     1      48.535  34.251  87.211  1.00  0.00     0.000 C 
BRANCH  13  14
ATOM     14  C   UNL     1      47.687  33.160  87.883  1.00  0.00     0.000 C 
BRANCH  14  15
ATOM     15  C   UNL     1      47.981  31.753  87.333  1.00  0.00     0.000 C 
BRANCH  15  16
ATOM     16  C   UNL     1      47.933  30.645  88.406  1.00  0.00     0.000 C 
BRANCH  16  17
ATOM     17  C   UNL     1      47.885  31.219  89.831  1.00  0.00     0.000 C 
BRANCH  17  18
ATOM     18  C   UNL     1      46.690  30.654  90.612  1.00  0.00     0.000 C 
BRANCH  18  19
ATOM     19  C   UNL     1      45.506  31.631  90.678  1.00  0.00     0.000 C 
BRANCH  19  20
ATOM     20  C   UNL     1      44.495  31.263  91.780  1.00  0.00     0.006 C 
BRANCH  20  21
ATOM     21  C   UNL     1      44.578  29.781  92.167  1.00  0.00     0.053 C 
BRANCH  21  22
ATOM     22  C   UNL     1      43.224  29.194  92.425  1.00  0.00     0.041 C 
ATOM     23  O   UNL     1      42.192  29.768  91.986  1.00  0.00    -0.550 OA
ATOM     24  O   UNL     1      43.103  27.999  93.124  1.00  0.00    -0.550 OA
ENDBRANCH  21  22
ENDBRANCH  20  21
ENDBRANCH  19  20
ENDBRANCH  18  19
ENDBRANCH  17  18
ENDBRANCH  16  17
ENDBRANCH  15  16
ENDBRANCH  14  15
ENDBRANCH  13  14
ENDBRANCH   1  13
TORSDOF 20
ENDMDL
MODEL 2
REMARK VINA RESULT:    -3.544      4.177      6.423
REMARK INTER + INTRA:         -10.588
REMARK INTER:                  -6.720
REMARK INTRA:                  -3.868
REMARK UNBOUND:                -2.901
REMARK SMILES CCCCCCCCCCCCCCCCCCCCCC(=O)[O-]
REMARK SMILES IDX 12 1 11 2 10 3 9 4 8 5 7 6 6 7 5 8 4 9 3 10 2 11 1 12 13 13
REMARK SMILES IDX 14 14 15 15 16 16 17 17 18 18 19 19 20 20 21 21 22 22 23 23
REMARK SMILES IDX 24 24
REMARK H PARENT
REMARK Flexibility Score: inf
ROOT
ATOM      1  C   UNL     1      48.210  32.698  86.725  1.00  0.00     0.000 C 
ENDROOT
BRANCH   1   2
ATOM      2  C   UNL     1      48.287  34.037  87.479  1.00  0.00     0.000 C 
BRANCH   2   3
ATOM      3  C   UNL     1      48.923  35.153  86.635  1.00  0.00     0.000 C 
BRANCH   3   4
ATOM      4  C   UNL     1      50.034  35.903  87.384  1.00  0.00    -0.000 C 
BRANCH   4   5
ATOM      5  C   UNL     1      51.237  34.989  87.644  1.00  0.00    -0.000 C 
BRANCH   5   6
ATOM      6  C   UNL     1      52.414  35.354  86.733  1.00  0.00    -0.000 C 
BRANCH   6   7
ATOM      7  C   UNL     1      52.752  34.199  85.779  1.00  0.00    -0.000 C 
BRANCH   7   8
ATOM      8  C   UNL     1      51.920  34.236  84.486  1.00  0.00    -0.000 C 
BRANCH   8   9
ATOM      9  C   UNL     1      51.076  32.968  84.288  1.00  0.00    -0.000 C 
BRANCH   9  10
ATOM     10  C   UNL     1      51.411  31.916  85.353  1.00  0.00    -0.000 C 
BRANCH  10  11
ATOM     11  C   UNL     1      50.994  30.515  84.892  1.00  0.00    -0.003 C 
ATOM     12  C   UNL     1      49.699  30.561  84.085  1.00  0.00     0.004 C 
ENDBRANCH  10  11
ENDBRANCH   9  10
ENDBRANCH   8   9
ENDBRANCH   7   8
ENDBRANCH   6   7
ENDBRANCH   5   6
ENDBRANCH   4   5
ENDBRANCH   3   4
ENDBRANCH   2   3
ENDBRANCH   1   2
BRANCH   1  13
ATOM     13  C   UNL     1      47.575  31.581  87.571  1.00  0.00     0.000 C 
BRANCH  13  14
ATOM     14  C   UNL     1      46.910  32.115  88.850  1.00  0.00     0.000 C 
BRANCH  14  15
ATOM     15  C   UNL     1      47.328  31.335  90.109  1.00  0.00     0.000 C 
BRANCH  15  16
ATOM     16  C   UNL     1      48.568  30.440  89.900  1.00  0.00     0.000 C 
BRANCH  16  17
ATOM     17  C   UNL     1      49.547  30.518  91.083  1.00  0.00     0.000 C 
BRANCH  17  18
ATOM     18  C   UNL     1      50.616  31.593  90.844  1.00  0.00     0.000 C 
BRANCH  18  19
ATOM     19  C   UNL     1      50.859  31.869  89.351  1.00  0.00     0.000 C 
BRANCH  19  20
ATOM     20  C   UNL     1      52.316  31.606  88.931  1.00  0.00     0.006 C 
BRANCH  20  21
ATOM     21  C   UNL     1      53.320  32.160  89.951  1.00  0.00     0.053 C 
BRANCH  21  22
ATOM     22  C   UNL     1      54.093  33.320  89.402  1.00  0.00     0.041 C 
ATOM     23  O   UNL     1      53.982  34.459  89.926  1.00  0.00    -0.550 OA
ATOM     24  O   UNL     1      54.957  33.137  88.329  1.00  0.00    -0.550 OA
ENDBRANCH  21  22
ENDBRANCH  20  21
ENDBRANCH  19  20
ENDBRANCH  18  19
ENDBRANCH  17  18
ENDBRANCH  16  17
ENDBRANCH  15  16
ENDBRANCH  14  15
ENDBRANCH  13  14
ENDBRANCH   1  13
TORSDOF 20
ENDMDL
MODEL 3
REMARK VINA RESULT:    -3.538      2.454      5.455
REMARK INTER + INTRA:         -10.575
REMARK INTER:                  -6.586
REMARK INTRA:                  -3.989
REMARK UNBOUND:                -2.901
REMARK SMILES CCCCCCCCCCCCCCCCCCCCCC(=O)[O-]
REMARK SMILES IDX 12 1 11 2 10 3 9 4 8 5 7 6 6 7 5 8 4 9 3 10 2 11 1 12 13 13
REMARK SMILES IDX 14 14 15 15 16 16 17 17 18 18 19 19 20 20 21 21 22 22 23 23
REMARK SMILES IDX 24 24
REMARK H PARENT
REMARK Flexibility Score: inf
ROOT
ATOM      1  C   UNL     1      54.455  30.741  87.723  1.00  0.00     0.000 C 
ENDROOT
BRANCH   1   2
ATOM      2  C   UNL     1      54.301  31.500  86.393  1.00  0.00     0.000 C 
BRANCH   2   3
ATOM      3  C   UNL     1      53.228  32.598  86.463  1.00  0.00     0.000 C 
BRANCH   3   4
ATOM      4  C   UNL     1      53.815  33.982  86.773  1.00  0.00    -0.000 C 
BRANCH   4   5
ATOM      5  C   UNL     1      52.806  35.092  86.454  1.00  0.00    -0.000 C 
BRANCH   5   6
ATOM      6  C   UNL     1      51.910  35.388  87.662  1.00  0.00    -0.000 C 
BRANCH   6   7
ATOM      7  C   UNL     1      50.458  35.631  87.226  1.00  0.00    -0.000 C 
BRANCH   7   8
ATOM      8  C   UNL     1      50.031  34.726  86.058  1.00  0.00    -0.000 C 
BRANCH   8   9
ATOM      9  C   UNL     1      49.319  33.449  86.529  1.00  0.00    -0.000 C 
BRANCH   9  10
ATOM     10  C   UNL     1      48.230  33.776  87.559  1.00  0.00    -0.000 C 
BRANCH  10  11
ATOM     11  C   UNL     1      47.562  32.499  88.079  1.00  0.00    -0.003 C 
ATOM     12  C   UNL     1      47.528  31.417  87.003  1.00  0.00     0.004 C 
ENDBRANCH  10  11
ENDBRANCH   9  10
ENDBRANCH   8   9
ENDBRANCH   7   8
ENDBRANCH   6   7
ENDBRANCH   5   6
ENDBRANCH   4   5
ENDBRANCH   3   4
ENDBRANCH   2   3
ENDBRANCH   1   2
BRANCH   1  13
ATOM     13  C   UNL     1      55.657  31.233  88.546  1.00  0.00     0.000 C 
BRANCH  13  14
ATOM     14  C   UNL     1      55.259  31.687  89.960  1.00  0.00     0.000 C 
BRANCH  14  15
ATOM     15  C   UNL     1      54.982  33.197  90.045  1.00  0.00     0.000 C 
BRANCH  15  16
ATOM     16  C   UNL     1      53.567  33.540  90.559  1.00  0.00     0.000 C 
BRANCH  16  17
ATOM     17  C   UNL     1      52.641  32.313  90.571  1.00  0.00     0.000 C 
BRANCH  17  18
ATOM     18  C   UNL     1      51.487  32.484  89.573  1.00  0.00     0.000 C 
BRANCH  18  19
ATOM     19  C   UNL     1      50.934  31.142  89.068  1.00  0.00     0.000 C 
BRANCH  19  20
ATOM     20  C   UNL     1      50.492  30.215  90.214  1.00  0.00     0.006 C 
BRANCH  20  21
ATOM     21  C   UNL     1      49.154  30.651  90.826  1.00  0.00     0.053 C 
BRANCH  21  22
ATOM     22  C   UNL     1      48.032  29.747  90.416  1.00  0.00     0.041 C 
ATOM     23  O   UNL     1      48.224  28.853  89.550  1.00  0.00    -0.550 OA
ATOM     24  O   UNL     1      46.782  29.873  91.010  1.00  0.00    -0.550 OA
ENDBRANCH  21  22
ENDBRANCH  20  21
ENDBRANCH  19  20
ENDBRANCH  18  19
ENDBRANCH  17  18
ENDBRANCH  16  17
ENDBRANCH  15  16
ENDBRANCH  14  15
ENDBRANCH  13  14
ENDBRANCH   1  13
TORSDOF 20
ENDMDL
MODEL 4
REMARK VINA RESULT:    -3.501      1.898      4.296
REMARK INTER + INTRA:         -10.495
REMARK INTER:                  -7.042
REMARK INTRA:                  -3.453
REMARK UNBOUND:                -2.901
REMARK SMILES CCCCCCCCCCCCCCCCCCCCCC(=O)[O-]
REMARK SMILES IDX 12 1 11 2 10 3 9 4 8 5 7 6 6 7 5 8 4 9 3 10 2 11 1 12 13 13
REMARK SMILES IDX 14 14 15 15 16 16 17 17 18 18 19 19 20 20 21 21 22 22 23 23
REMARK SMILES IDX 24 24
REMARK H PARENT
REMARK Flexibility Score: inf
ROOT
ATOM      1  C   UNL     1      52.969  30.833  88.203  1.00  0.00     0.000 C 
ENDROOT
BRANCH   1   2
ATOM      2  C   UNL     1      53.990  31.508  87.270  1.00  0.00     0.000 C 
BRANCH   2   3
ATOM      3  C   UNL     1      54.737  32.665  87.954  1.00  0.00     0.000 C 
BRANCH   3   4
ATOM      4  C   UNL     1      54.252  34.043  87.484  1.00  0.00    -0.000 C 
BRANCH   4   5
ATOM      5  C   UNL     1      53.559  33.947  86.119  1.00  0.00    -0.000 C 
BRANCH   5   6
ATOM      6  C   UNL     1      52.463  35.010  85.981  1.00  0.00    -0.000 C 
BRANCH   6   7
ATOM      7  C   UNL     1      51.973  35.479  87.359  1.00  0.00    -0.000 C 
BRANCH   7   8
ATOM      8  C   UNL     1      50.441  35.583  87.439  1.00  0.00    -0.000 C 
BRANCH   8   9
ATOM      9  C   UNL     1      49.730  34.502  86.612  1.00  0.00    -0.000 C 
BRANCH   9  10
ATOM     10  C   UNL     1      48.296  34.283  87.112  1.00  0.00    -0.000 C 
BRANCH  10  11
ATOM     11  C   UNL     1      48.148  32.911  87.777  1.00  0.00    -0.003 C 
ATOM     12  C   UNL     1      47.862  31.824  86.743  1.00  0.00     0.004 C 
ENDBRANCH  10  11
ENDBRANCH   9  10
ENDBRANCH   8   9
ENDBRANCH   7   8
ENDBRANCH   6   7
ENDBRANCH   5   6
ENDBRANCH   4   5
ENDBRANCH   3   4
ENDBRANCH   2   3
ENDBRANCH   1   2
BRANCH   1  13
ATOM     13  C   UNL     1      51.615  31.563  88.218  1.00  0.00     0.000 C 
BRANCH  13  14
ATOM     14  C   UNL     1      51.459  32.494  89.430  1.00  0.00     0.000 C 
BRANCH  14  15
ATOM     15  C   UNL     1      52.032  31.890  90.724  1.00  0.00     0.000 C 
BRANCH  15  16
ATOM     16  C   UNL     1      50.967  31.626  91.809  1.00  0.00     0.000 C 
BRANCH  16  17
ATOM     17  C   UNL     1      49.589  31.310  91.207  1.00  0.00     0.000 C 
BRANCH  17  18
ATOM     18  C   UNL     1      49.443  29.808  90.924  1.00  0.00     0.000 C 
BRANCH  18  19
ATOM     19  C   UNL     1      48.606  29.518  89.668  1.00  0.00     0.000 C 
BRANCH  19  20
ATOM     20  C   UNL     1      47.323  28.727  89.982  1.00  0.00     0.006 C 
BRANCH  20  21
ATOM     21  C   UNL     1      46.389  29.493  90.929  1.00  0.00     0.053 C 
BRANCH  21  22
ATOM     22  C   UNL     1      45.887  30.762  90.313  1.00  0.00     0.041 C 
ATOM     23  O   UNL     1      45.831  31.818  90.997  1.00  0.00    -0.550 OA
ATOM     24  O   UNL     1      45.510  30.787  88.976  1.00  0.00    -0.550 OA
ENDBRANCH  21  22
ENDBRANCH  20  21
ENDBRANCH  19  20
ENDBRANCH  18  19
ENDBRANCH  17  18
ENDBRANCH  16  17
ENDBRANCH  15  16
ENDBRANCH  14  15
ENDBRANCH  13  14
ENDBRANCH   1  13
TORSDOF 20
ENDMDL
MODEL 5
REMARK VINA RESULT:    -3.492     15.933     17.666
REMARK INTER + INTRA:         -10.475
REMARK INTER:                  -6.969
REMARK INTRA:                  -3.506
REMARK UNBOUND:                -2.901
REMARK SMILES CCCCCCCCCCCCCCCCCCCCCC(=O)[O-]
REMARK SMILES IDX 12 1 11 2 10 3 9 4 8 5 7 6 6 7 5 8 4 9 3 10 2 11 1 12 13 13
REMARK SMILES IDX 14 14 15 15 16 16 17 17 18 18 19 19 20 20 21 21 22 22 23 23
REMARK SMILES IDX 24 24
REMARK H PARENT
REMARK Flexibility Score: inf
ROOT
ATOM      1  C   UNL     1      45.801  21.488  73.046  1.00  0.00     0.000 C 
ENDROOT
BRANCH   1   2
ATOM      2  C   UNL     1      46.803  20.363  73.357  1.00  0.00     0.000 C 
BRANCH   2   3
ATOM      3  C   UNL     1      46.869  20.031  74.857  1.00  0.00     0.000 C 
BRANCH   3   4
ATOM      4  C   UNL     1      45.564  19.420  75.387  1.00  0.00    -0.000 C 
BRANCH   4   5
ATOM      5  C   UNL     1      45.850  18.218  76.296  1.00  0.00    -0.000 C 
BRANCH   5   6
ATOM      6  C   UNL     1      45.510  18.538  77.757  1.00  0.00    -0.000 C 
BRANCH   6   7
ATOM      7  C   UNL     1      44.484  19.677  77.847  1.00  0.00    -0.000 C 
BRANCH   7   8
ATOM      8  C   UNL     1      44.890  20.763  78.856  1.00  0.00    -0.000 C 
BRANCH   8   9
ATOM      9  C   UNL     1      45.372  22.053  78.175  1.00  0.00    -0.000 C 
BRANCH   9  10
ATOM     10  C   UNL     1      46.810  22.388  78.592  1.00  0.00    -0.000 C 
BRANCH  10  11
ATOM     11  C   UNL     1      47.820  21.828  77.584  1.00  0.00    -0.003 C 
ATOM     12  C   UNL     1      48.571  20.631  78.162  1.00  0.00     0.004 C 
ENDBRANCH  10  11
ENDBRANCH   9  10
ENDBRANCH   8   9
ENDBRANCH   7   8
ENDBRANCH   6   7
ENDBRANCH   5   6
ENDBRANCH   4   5
ENDBRANCH   3   4
ENDBRANCH   2   3
ENDBRANCH   1   2
BRANCH   1  13
ATOM     13  C   UNL     1      46.059  22.754  73.882  1.00  0.00     0.000 C 
BRANCH  13  14
ATOM     14  C   UNL     1      44.825  23.195  74.684  1.00  0.00     0.000 C 
BRANCH  14  15
ATOM     15  C   UNL     1      43.545  22.450  74.266  1.00  0.00     0.000 C 
BRANCH  15  16
ATOM     16  C   UNL     1      42.796  21.795  75.446  1.00  0.00     0.000 C 
BRANCH  16  17
ATOM     17  C   UNL     1      41.272  21.819  75.250  1.00  0.00     0.000 C 
BRANCH  17  18
ATOM     18  C   UNL     1      40.542  21.601  76.584  1.00  0.00     0.000 C 
BRANCH  18  19
ATOM     19  C   UNL     1      41.447  21.836  77.803  1.00  0.00     0.000 C 
BRANCH  19  20
ATOM     20  C   UNL     1      40.782  21.411  79.124  1.00  0.00     0.006 C 
BRANCH  20  21
ATOM     21  C   UNL     1      40.205  19.991  79.050  1.00  0.00     0.053 C 
BRANCH  21  22
ATOM     22  C   UNL     1      39.048  19.808  79.982  1.00  0.00     0.041 C 
ATOM     23  O   UNL     1      38.571  20.797  80.600  1.00  0.00    -0.550 OA
ATOM     24  O   UNL     1      38.476  18.552  80.147  1.00  0.00    -0.550 OA
ENDBRANCH  21  22
ENDBRANCH  20  21
ENDBRANCH  19  20
ENDBRANCH  18  19
ENDBRANCH  17  18
ENDBRANCH  16  17
ENDBRANCH  15  16
ENDBRANCH  14  15
ENDBRANCH  13  14
ENDBRANCH   1  13
TORSDOF 20
ENDMDL
MODEL 6
REMARK VINA RESULT:    -3.477      5.955      8.150
REMARK INTER + INTRA:         -10.444
REMARK INTER:                  -6.518
REMARK INTRA:                  -3.925
REMARK UNBOUND:                -2.901
REMARK SMILES CCCCCCCCCCCCCCCCCCCCCC(=O)[O-]
REMARK SMILES IDX 12 1 11 2 10 3 9 4 8 5 7 6 6 7 5 8 4 9 3 10 2 11 1 12 13 13
REMARK SMILES IDX 14 14 15 15 16 16 17 17 18 18 19 19 20 20 21 21 22 22 23 23
REMARK SMILES IDX 24 24
REMARK H PARENT
REMARK Flexibility Score: inf
ROOT
ATOM      1  C   UNL     1      51.426  35.178  86.875  1.00  0.00     0.000 C 
ENDROOT
BRANCH   1   2
ATOM      2  C   UNL     1      52.634  35.089  87.824  1.00  0.00     0.000 C 
BRANCH   2   3
ATOM      3  C   UNL     1      53.813  34.320  87.206  1.00  0.00     0.000 C 
BRANCH   3   4
ATOM      4  C   UNL     1      54.514  33.399  88.214  1.00  0.00    -0.000 C 
BRANCH   4   5
ATOM      5  C   UNL     1      54.104  33.744  89.651  1.00  0.00    -0.000 C 
BRANCH   5   6
ATOM      6  C   UNL     1      54.012  32.481  90.517  1.00  0.00    -0.000 C 
BRANCH   6   7
ATOM      7  C   UNL     1      52.577  32.260  91.018  1.00  0.00    -0.000 C 
BRANCH   7   8
ATOM      8  C   UNL     1      51.751  31.370  90.077  1.00  0.00    -0.000 C 
BRANCH   8   9
ATOM      9  C   UNL     1      50.514  32.088  89.517  1.00  0.00    -0.000 C 
BRANCH   9  10
ATOM     10  C   UNL     1      50.386  31.861  88.005  1.00  0.00    -0.000 C 
BRANCH  10  11
ATOM     11  C   UNL     1      51.670  31.257  87.428  1.00  0.00    -0.003 C 
ATOM     12  C   UNL     1      51.691  31.355  85.905  1.00  0.00     0.004 C 
ENDBRANCH  10  11
ENDBRANCH   9  10
ENDBRANCH   8   9
ENDBRANCH   7   8
ENDBRANCH   6   7
ENDBRANCH   5   6
ENDBRANCH   4   5
ENDBRANCH   3   4
ENDBRANCH   2   3
ENDBRANCH   1   2
BRANCH   1  13
ATOM     13  C   UNL     1      50.230  35.907  87.511  1.00  0.00     0.000 C 
BRANCH  13  14
ATOM     14  C   UNL     1      48.893  35.201  87.238  1.00  0.00     0.000 C 
BRANCH  14  15
ATOM     15  C   UNL     1      48.627  34.988  85.738  1.00  0.00     0.000 C 
BRANCH  15  16
ATOM     16  C   UNL     1      48.628  33.505  85.312  1.00  0.00     0.000 C 
BRANCH  16  17
ATOM     17  C   UNL     1      49.150  33.312  83.879  1.00  0.00     0.000 C 
BRANCH  17  18
ATOM     18  C   UNL     1      49.779  34.606  83.343  1.00  0.00     0.000 C 
BRANCH  18  19
ATOM     19  C   UNL     1      51.109  34.363  82.612  1.00  0.00     0.000 C 
BRANCH  19  20
ATOM     20  C   UNL     1      52.294  34.197  83.579  1.00  0.00     0.006 C 
BRANCH  20  21
ATOM     21  C   UNL     1      53.530  33.610  82.883  1.00  0.00     0.053 C 
BRANCH  21  22
ATOM     22  C   UNL     1      53.993  34.471  81.747  1.00  0.00     0.041 C 
ATOM     23  O   UNL     1      53.998  34.018  80.572  1.00  0.00    -0.550 OA
ATOM     24  O   UNL     1      54.389  35.782  81.982  1.00  0.00    -0.550 OA
ENDBRANCH  21  22
ENDBRANCH  20  21
ENDBRANCH  19  20
ENDBRANCH  18  19
ENDBRANCH  17  18
ENDBRANCH  16  17
ENDBRANCH  15  16
ENDBRANCH  14  15
ENDBRANCH  13  14
ENDBRANCH   1  13
TORSDOF 20
ENDMDL
MODEL 7
REMARK VINA RESULT:    -3.471      2.809      6.194
REMARK INTER + INTRA:         -10.429
REMARK INTER:                  -6.833
REMARK INTRA:                  -3.596
REMARK UNBOUND:                -2.901
REMARK SMILES CCCCCCCCCCCCCCCCCCCCCC(=O)[O-]
REMARK SMILES IDX 12 1 11 2 10 3 9 4 8 5 7 6 6 7 5 8 4 9 3 10 2 11 1 12 13 13
REMARK SMILES IDX 14 14 15 15 16 16 17 17 18 18 19 19 20 20 21 21 22 22 23 23
REMARK SMILES IDX 24 24
REMARK H PARENT
REMARK Flexibility Score: inf
ROOT
ATOM      1  C   UNL     1      50.979  34.777  87.470  1.00  0.00     0.000 C 
ENDROOT
BRANCH   1   2
ATOM      2  C   UNL     1      49.849  35.821  87.425  1.00  0.00     0.000 C 
BRANCH   2   3
ATOM      3  C   UNL     1      48.671  35.377  86.542  1.00  0.00     0.000 C 
BRANCH   3   4
ATOM      4  C   UNL     1      49.033  34.208  85.615  1.00  0.00    -0.000 C 
BRANCH   4   5
ATOM      5  C   UNL     1      48.737  34.555  84.151  1.00  0.00    -0.000 C 
BRANCH   5   6
ATOM      6  C   UNL     1      50.033  34.739  83.354  1.00  0.00    -0.000 C 
BRANCH   6   7
ATOM      7  C   UNL     1      51.113  33.753  83.824  1.00  0.00    -0.000 C 
BRANCH   7   8
ATOM      8  C   UNL     1      52.538  34.290  83.611  1.00  0.00    -0.000 C 
BRANCH   8   9
ATOM      9  C   UNL     1      53.474  33.248  82.980  1.00  0.00    -0.000 C 
BRANCH   9  10
ATOM     10  C   UNL     1      53.981  33.725  81.613  1.00  0.00    -0.000 C 
BRANCH  10  11
ATOM     11  C   UNL     1      53.577  35.179  81.351  1.00  0.00    -0.003 C 
ATOM     12  C   UNL     1      54.763  36.123  81.529  1.00  0.00     0.004 C 
ENDBRANCH  10  11
ENDBRANCH   9  10
ENDBRANCH   8   9
ENDBRANCH   7   8
ENDBRANCH   6   7
ENDBRANCH   5   6
ENDBRANCH   4   5
ENDBRANCH   3   4
ENDBRANCH   2   3
ENDBRANCH   1   2
BRANCH   1  13
ATOM     13  C   UNL     1      52.344  35.369  87.078  1.00  0.00     0.000 C 
BRANCH  13  14
ATOM     14  C   UNL     1      53.485  34.347  87.191  1.00  0.00     0.000 C 
BRANCH  14  15
ATOM     15  C   UNL     1      52.990  32.940  87.567  1.00  0.00     0.000 C 
BRANCH  15  16
ATOM     16  C   UNL     1      53.145  31.905  86.432  1.00  0.00     0.000 C 
BRANCH  16  17
ATOM     17  C   UNL     1      51.898  31.020  86.279  1.00  0.00     0.000 C 
BRANCH  17  18
ATOM     18  C   UNL     1      51.090  30.977  87.584  1.00  0.00     0.000 C 
BRANCH  18  19
ATOM     19  C   UNL     1      49.591  31.233  87.364  1.00  0.00     0.000 C 
BRANCH  19  20
ATOM     20  C   UNL     1      48.911  31.862  88.594  1.00  0.00     0.006 C 
BRANCH  20  21
ATOM     21  C   UNL     1      47.461  32.273  88.306  1.00  0.00     0.053 C 
BRANCH  21  22
ATOM     22  C   UNL     1      46.493  31.582  89.216  1.00  0.00     0.041 C 
ATOM     23  O   UNL     1      45.531  30.926  88.737  1.00  0.00    -0.550 OA
ATOM     24  O   UNL     1      46.670  31.637  90.594  1.00  0.00    -0.550 OA
ENDBRANCH  21  22
ENDBRANCH  20  21
ENDBRANCH  19  20
ENDBRANCH  18  19
ENDBRANCH  17  18
ENDBRANCH  16  17
ENDBRANCH  15  16
ENDBRANCH  14  15
ENDBRANCH  13  14
ENDBRANCH   1  13
TORSDOF 20
ENDMDL
MODEL 8
REMARK VINA RESULT:    -3.447      3.865      7.109
REMARK INTER + INTRA:         -10.378
REMARK INTER:                  -6.144
REMARK INTRA:                  -4.234
REMARK UNBOUND:                -2.901
REMARK SMILES CCCCCCCCCCCCCCCCCCCCCC(=O)[O-]
REMARK SMILES IDX 12 1 11 2 10 3 9 4 8 5 7 6 6 7 5 8 4 9 3 10 2 11 1 12 13 13
REMARK SMILES IDX 14 14 15 15 16 16 17 17 18 18 19 19 20 20 21 21 22 22 23 23
REMARK SMILES IDX 24 24
REMARK H PARENT
REMARK Flexibility Score: inf
ROOT
ATOM      1  C   UNL     1      51.109  31.229  84.892  1.00  0.00     0.000 C 
ENDROOT
BRANCH   1   2
ATOM      2  C   UNL     1      50.843  30.381  86.148  1.00  0.00     0.000 C 
BRANCH   2   3
ATOM      3  C   UNL     1      51.407  31.025  87.424  1.00  0.00     0.000 C 
BRANCH   3   4
ATOM      4  C   UNL     1      50.390  31.051  88.574  1.00  0.00    -0.000 C 
BRANCH   4   5
ATOM      5  C   UNL     1      50.042  29.630  89.033  1.00  0.00    -0.000 C 
BRANCH   5   6
ATOM      6  C   UNL     1      49.365  29.644  90.408  1.00  0.00    -0.000 C 
BRANCH   6   7
ATOM      7  C   UNL     1      48.571  30.942  90.618  1.00  0.00    -0.000 C 
BRANCH   7   8
ATOM      8  C   UNL     1      47.065  30.692  90.803  1.00  0.00    -0.000 C 
BRANCH   8   9
ATOM      9  C   UNL     1      46.200  31.666  89.990  1.00  0.00    -0.000 C 
BRANCH   9  10
ATOM     10  C   UNL     1      46.741  31.819  88.563  1.00  0.00    -0.000 C 
BRANCH  10  11
ATOM     11  C   UNL     1      46.376  30.606  87.702  1.00  0.00    -0.003 C 
ATOM     12  C   UNL     1      47.267  30.517  86.466  1.00  0.00     0.004 C 
ENDBRANCH  10  11
ENDBRANCH   9  10
ENDBRANCH   8   9
ENDBRANCH   7   8
ENDBRANCH   6   7
ENDBRANCH   5   6
ENDBRANCH   4   5
ENDBRANCH   3   4
ENDBRANCH   2   3
ENDBRANCH   1   2
BRANCH   1  13
ATOM     13  C   UNL     1      52.370  32.099  85.025  1.00  0.00     0.000 C 
BRANCH  13  14
ATOM     14  C   UNL     1      52.269  33.412  84.233  1.00  0.00     0.000 C 
BRANCH  14  15
ATOM     15  C   UNL     1      52.443  34.658  85.119  1.00  0.00     0.000 C 
BRANCH  15  16
ATOM     16  C   UNL     1      52.978  34.343  86.533  1.00  0.00     0.000 C 
BRANCH  16  17
ATOM     17  C   UNL     1      52.045  34.866  87.637  1.00  0.00     0.000 C 
BRANCH  17  18
ATOM     18  C   UNL     1      50.689  35.291  87.056  1.00  0.00     0.000 C 
BRANCH  18  19
ATOM     19  C   UNL     1      49.554  34.323  87.427  1.00  0.00     0.000 C 
BRANCH  19  20
ATOM     20  C   UNL     1      48.767  33.836  86.198  1.00  0.00     0.006 C 
BRANCH  20  21
ATOM     21  C   UNL     1      48.694  34.903  85.098  1.00  0.00     0.053 C 
BRANCH  21  22
ATOM     22  C   UNL     1      48.760  34.300  83.728  1.00  0.00     0.041 C 
ATOM     23  O   UNL     1      48.198  33.198  83.495  1.00  0.00    -0.550 OA
ATOM     24  O   UNL     1      49.417  34.969  82.703  1.00  0.00    -0.550 OA
ENDBRANCH  21  22
ENDBRANCH  20  21
ENDBRANCH  19  20
ENDBRANCH  18  19
ENDBRANCH  17  18
ENDBRANCH  16  17
ENDBRANCH  15  16
ENDBRANCH  14  15
ENDBRANCH  13  14
ENDBRANCH   1  13
TORSDOF 20
ENDMDL
MODEL 9
REMARK VINA RESULT:    -3.427      4.185      6.804
REMARK INTER + INTRA:         -10.334
REMARK INTER:                  -6.088
REMARK INTRA:                  -4.246
REMARK UNBOUND:                -2.901
REMARK SMILES CCCCCCCCCCCCCCCCCCCCCC(=O)[O-]
REMARK SMILES IDX 12 1 11 2 10 3 9 4 8 5 7 6 6 7 5 8 4 9 3 10 2 11 1 12 13 13
REMARK SMILES IDX 14 14 15 15 16 16 17 17 18 18 19 19 20 20 21 21 22 22 23 23
REMARK SMILES IDX 24 24
REMARK H PARENT
REMARK Flexibility Score: inf
ROOT
ATOM      1  C   UNL     1      52.935  32.844  86.876  1.00  0.00     0.000 C 
ENDROOT
BRANCH   1   2
ATOM      2  C   UNL     1      53.495  34.275  86.796  1.00  0.00     0.000 C 
BRANCH   2   3
ATOM      3  C   UNL     1      52.475  35.334  87.247  1.00  0.00     0.000 C 
BRANCH   3   4
ATOM      4  C   UNL     1      51.115  34.726  87.616  1.00  0.00    -0.000 C 
BRANCH   4   5
ATOM      5  C   UNL     1      49.982  35.736  87.394  1.00  0.00    -0.000 C 
BRANCH   5   6
ATOM      6  C   UNL     1      48.732  35.048  86.834  1.00  0.00    -0.000 C 
BRANCH   6   7
ATOM      7  C   UNL     1      48.860  34.818  85.321  1.00  0.00    -0.000 C 
BRANCH   7   8
ATOM      8  C   UNL     1      48.861  33.328  84.945  1.00  0.00    -0.000 C 
BRANCH   8   9
ATOM      9  C   UNL     1      50.211  32.860  84.382  1.00  0.00    -0.000 C 
BRANCH   9  10
ATOM     10  C   UNL     1      51.054  34.055  83.917  1.00  0.00    -0.000 C 
BRANCH  10  11
ATOM     11  C   UNL     1      52.363  33.587  83.271  1.00  0.00    -0.003 C 
ATOM     12  C   UNL     1      53.334  34.750  83.088  1.00  0.00     0.004 C 
ENDBRANCH  10  11
ENDBRANCH   9  10
ENDBRANCH   8   9
ENDBRANCH   7   8
ENDBRANCH   6   7
ENDBRANCH   5   6
ENDBRANCH   4   5
ENDBRANCH   3   4
ENDBRANCH   2   3
ENDBRANCH   1   2
BRANCH   1  13
ATOM     13  C   UNL     1      53.969  31.783  86.464  1.00  0.00     0.000 C 
BRANCH  13  14
ATOM     14  C   UNL     1      54.314  30.818  87.609  1.00  0.00     0.000 C 
BRANCH  14  15
ATOM     15  C   UNL     1      55.547  31.263  88.413  1.00  0.00     0.000 C 
BRANCH  15  16
ATOM     16  C   UNL     1      55.223  31.682  89.863  1.00  0.00     0.000 C 
BRANCH  16  17
ATOM     17  C   UNL     1      55.053  33.203  90.004  1.00  0.00     0.000 C 
BRANCH  17  18
ATOM     18  C   UNL     1      53.676  33.552  90.586  1.00  0.00     0.000 C 
BRANCH  18  19
ATOM     19  C   UNL     1      52.856  32.307  90.961  1.00  0.00     0.000 C 
BRANCH  19  20
ATOM     20  C   UNL     1      51.482  32.273  90.268  1.00  0.00     0.006 C 
BRANCH  20  21
ATOM     21  C   UNL     1      51.214  30.926  89.584  1.00  0.00     0.053 C 
BRANCH  21  22
ATOM     22  C   UNL     1      51.403  29.774  90.523  1.00  0.00     0.041 C 
ATOM     23  O   UNL     1      52.301  28.920  90.304  1.00  0.00    -0.550 OA
ATOM     24  O   UNL     1      50.606  29.661  91.656  1.00  0.00    -0.550 OA
ENDBRANCH  21  22
ENDBRANCH  20  21
ENDBRANCH  19  20
ENDBRANCH  18  19
ENDBRANCH  17  18
ENDBRANCH  16  17
ENDBRANCH  15  16
ENDBRANCH  14  15
ENDBRANCH  13  14
ENDBRANCH   1  13
TORSDOF 20
ENDMDL
