MODEL 1
REMARK VINA RESULT:    23.871      0.000      0.000
REMARK INTER + INTRA:          32.308
REMARK INTER:                  32.942
REMARK INTRA:                  -0.634
REMARK UNBOUND:                -0.634
REMARK SMILES CC[C@@H](CC[C@@H](C)[C@@H]1CC[C@H]2[C@@H]3CC=C4C[C@@H](O)CC[C@]4(C)[C@@H]3CC[C@@]21C)C(C)C
REMARK SMILES IDX 5 1 4 2 3 3 2 4 1 5 28 6 29 7 30 8 6 9 7 10 8 11 9 12 26 13
REMARK SMILES IDX 10 14 11 15 25 16 27 17 12 18 24 19 23 20 13 21 21 22 14 23
REMARK SMILES IDX 15 24 20 25 22 26 16 27 19 28 17 29 18 30
REMARK H PARENT 18 31
REMARK Flexibility Score: inf
ROOT
ATOM      1  C   UNL     1      14.433  23.258   6.319  1.00  0.00     0.004 C 
ENDROOT
BRANCH   1   2
ATOM      2  C   UNL     1      15.855  23.861   6.370  1.00  0.00     0.004 C 
BRANCH   2   3
ATOM      3  C   UNL     1      15.950  25.297   5.776  1.00  0.00    -0.009 C 
BRANCH   3   4
ATOM      4  C   UNL     1      17.024  25.332   4.646  1.00  0.00     0.000 C 
ATOM      5  C   UNL     1      16.818  24.238   3.592  1.00  0.00     0.004 C 
ENDBRANCH   3   4
BRANCH   3   6
ATOM      6  C   UNL     1      16.178  26.396   6.872  1.00  0.00    -0.014 C 
ATOM      7  C   UNL     1      14.905  27.226   7.123  1.00  0.00     0.007 C 
ATOM      8  C   UNL     1      17.322  27.358   6.506  1.00  0.00     0.007 C 
ENDBRANCH   3   6
ENDBRANCH   2   3
ENDBRANCH   1   2
BRANCH   1   9
ATOM      9  C   UNL     1      14.400  21.711   6.479  1.00  0.00    -0.011 C 
ATOM     10  C   UNL     1      14.562  21.361   7.973  1.00  0.00     0.008 C 
BRANCH   9  11
ATOM     11  C   UNL     1      13.144  21.052   5.797  1.00  0.00    -0.002 C 
ATOM     12  C   UNL     1      13.293  19.518   5.587  1.00  0.00     0.005 C 
ATOM     13  C   UNL     1      12.672  21.586   4.395  1.00  0.00    -0.026 C 
ATOM     14  C   UNL     1      13.227  19.241   4.079  1.00  0.00     0.005 C 
ATOM     15  C   UNL     1      13.357  20.612   3.423  1.00  0.00    -0.001 C 
ATOM     16  C   UNL     1      13.029  23.058   4.001  1.00  0.00     0.007 C 
ATOM     17  C   UNL     1      11.114  21.438   4.354  1.00  0.00     0.012 C 
ATOM     18  C   UNL     1      12.865  20.751   1.954  1.00  0.00     0.000 C 
ATOM     19  C   UNL     1      13.481  23.212   2.525  1.00  0.00     0.005 C 
ATOM     20  C   UNL     1      12.714  22.279   1.533  1.00  0.00     0.003 C 
ATOM     21  C   UNL     1      13.784  19.915   1.010  1.00  0.00     0.031 C 
ATOM     22  C   UNL     1      13.090  22.543   0.020  1.00  0.00    -0.008 C 
ATOM     23  C   UNL     1      14.793  20.744   0.276  1.00  0.00    -0.027 C 
ATOM     24  C   UNL     1      14.489  21.954  -0.231  1.00  0.00    -0.065 C 
ATOM     25  C   UNL     1      12.985  24.071  -0.344  1.00  0.00     0.014 C 
ATOM     26  C   UNL     1      12.058  21.825  -0.899  1.00  0.00     0.016 C 
ATOM     27  C   UNL     1      15.626  22.720  -0.886  1.00  0.00     0.063 C 
ATOM     28  C   UNL     1      14.325  24.807  -0.412  1.00  0.00     0.033 C 
ATOM     29  C   UNL     1      15.258  24.111  -1.400  1.00  0.00     0.118 C 
BRANCH  29  30
ATOM     30  O   UNL     1      14.656  24.002  -2.665  1.00  0.00    -0.393 OA
ATOM     31  H   UNL     1      15.377  24.115  -3.344  1.00  0.00     0.210 HD
ENDBRANCH  29  30
ENDBRANCH   9  11
ENDBRANCH   1   9
TORSDOF 7
ENDMDL
MODEL 2
REMARK VINA RESULT:    25.504      3.261      6.090
REMARK INTER + INTRA:          34.562
REMARK INTER:                  31.384
REMARK INTRA:                   3.178
REMARK UNBOUND:                -0.634
REMARK SMILES CC[C@@H](CC[C@@H](C)[C@@H]1CC[C@H]2[C@@H]3CC=C4C[C@@H](O)CC[C@]4(C)[C@@H]3CC[C@@]21C)C(C)C
REMARK SMILES IDX 5 1 4 2 3 3 2 4 1 5 28 6 29 7 30 8 6 9 7 10 8 11 9 12 26 13
REMARK SMILES IDX 10 14 11 15 25 16 27 17 12 18 24 19 23 20 13 21 21 22 14 23
REMARK SMILES IDX 15 24 20 25 22 26 16 27 19 28 17 29 18 30
REMARK H PARENT 18 31
REMARK Flexibility Score: inf
ROOT
ATOM      1  C   UNL     1      13.529  19.636   0.208  1.00  0.00     0.004 C 
ENDROOT
BRANCH   1   2
ATOM      2  C   UNL     1      13.478  21.171   0.046  1.00  0.00     0.004 C 
BRANCH   2   3
ATOM      3  C   UNL     1      14.321  21.944   1.102  1.00  0.00    -0.009 C 
BRANCH   3   4
ATOM      4  C   UNL     1      13.424  22.991   1.832  1.00  0.00     0.000 C 
ATOM      5  C   UNL     1      13.031  22.556   3.248  1.00  0.00     0.004 C 
ENDBRANCH   3   4
BRANCH   3   6
ATOM      6  C   UNL     1      15.628  22.570   0.500  1.00  0.00    -0.014 C 
ATOM      7  C   UNL     1      16.596  21.487  -0.012  1.00  0.00     0.007 C 
ATOM      8  C   UNL     1      16.376  23.452   1.516  1.00  0.00     0.007 C 
ENDBRANCH   3   6
ENDBRANCH   2   3
ENDBRANCH   1   2
BRANCH   1   9
ATOM      9  C   UNL     1      12.503  18.875  -0.679  1.00  0.00    -0.011 C 
ATOM     10  C   UNL     1      11.127  18.896   0.018  1.00  0.00     0.008 C 
BRANCH   9  11
ATOM     11  C   UNL     1      12.479  19.391  -2.167  1.00  0.00    -0.002 C 
ATOM     12  C   UNL     1      13.755  19.013  -2.970  1.00  0.00     0.005 C 
ATOM     13  C   UNL     1      12.299  20.930  -2.434  1.00  0.00    -0.026 C 
ATOM     14  C   UNL     1      14.444  20.315  -3.399  1.00  0.00     0.005 C 
ATOM     15  C   UNL     1      13.752  21.409  -2.592  1.00  0.00    -0.001 C 
ATOM     16  C   UNL     1      11.577  21.796  -1.349  1.00  0.00     0.007 C 
ATOM     17  C   UNL     1      11.501  21.069  -3.773  1.00  0.00     0.012 C 
ATOM     18  C   UNL     1      13.873  22.868  -3.115  1.00  0.00     0.000 C 
ATOM     19  C   UNL     1      12.247  23.174  -1.108  1.00  0.00     0.005 C 
ATOM     20  C   UNL     1      12.819  23.829  -2.408  1.00  0.00     0.003 C 
ATOM     21  C   UNL     1      15.353  23.347  -3.002  1.00  0.00     0.031 C 
ATOM     22  C   UNL     1      13.376  25.290  -2.169  1.00  0.00    -0.008 C 
ATOM     23  C   UNL     1      15.602  24.230  -1.816  1.00  0.00    -0.027 C 
ATOM     24  C   UNL     1      14.720  25.170  -1.428  1.00  0.00    -0.065 C 
ATOM     25  C   UNL     1      12.330  26.193  -1.416  1.00  0.00     0.014 C 
ATOM     26  C   UNL     1      13.609  25.982  -3.545  1.00  0.00     0.016 C 
ATOM     27  C   UNL     1      15.063  25.943  -0.166  1.00  0.00     0.063 C 
ATOM     28  C   UNL     1      12.610  26.391   0.075  1.00  0.00     0.033 C 
ATOM     29  C   UNL     1      14.013  26.962   0.274  1.00  0.00     0.118 C 
BRANCH  29  30
ATOM     30  O   UNL     1      14.178  28.153  -0.452  1.00  0.00    -0.393 OA
ATOM     31  H   UNL     1      13.309  28.347  -0.900  1.00  0.00     0.210 HD
ENDBRANCH  29  30
ENDBRANCH   9  11
ENDBRANCH   1   9
TORSDOF 7
ENDMDL
MODEL 3
REMARK VINA RESULT:    25.711      2.241      5.624
REMARK INTER + INTRA:          34.847
REMARK INTER:                  34.661
REMARK INTRA:                   0.186
REMARK UNBOUND:                -0.634
REMARK SMILES CC[C@@H](CC[C@@H](C)[C@@H]1CC[C@H]2[C@@H]3CC=C4C[C@@H](O)CC[C@]4(C)[C@@H]3CC[C@@]21C)C(C)C
REMARK SMILES IDX 5 1 4 2 3 3 2 4 1 5 28 6 29 7 30 8 6 9 7 10 8 11 9 12 26 13
REMARK SMILES IDX 10 14 11 15 25 16 27 17 12 18 24 19 23 20 13 21 21 22 14 23
REMARK SMILES IDX 15 24 20 25 22 26 16 27 19 28 17 29 18 30
REMARK H PARENT 18 31
REMARK Flexibility Score: inf
ROOT
ATOM      1  C   UNL     1      14.130  22.485   3.057  1.00  0.00     0.004 C 
ENDROOT
BRANCH   1   2
ATOM      2  C   UNL     1      12.853  22.741   3.887  1.00  0.00     0.004 C 
BRANCH   2   3
ATOM      3  C   UNL     1      12.672  21.759   5.082  1.00  0.00    -0.009 C 
BRANCH   3   4
ATOM      4  C   UNL     1      14.044  21.522   5.784  1.00  0.00     0.000 C 
ATOM      5  C   UNL     1      14.313  22.519   6.918  1.00  0.00     0.004 C 
ENDBRANCH   3   4
BRANCH   3   6
ATOM      6  C   UNL     1      11.957  20.424   4.671  1.00  0.00    -0.014 C 
ATOM      7  C   UNL     1      11.663  19.534   5.893  1.00  0.00     0.007 C 
ATOM      8  C   UNL     1      12.779  19.607   3.659  1.00  0.00     0.007 C 
ENDBRANCH   3   6
ENDBRANCH   2   3
ENDBRANCH   1   2
BRANCH   1   9
ATOM      9  C   UNL     1      15.056  23.728   2.929  1.00  0.00    -0.011 C 
ATOM     10  C   UNL     1      15.796  23.939   4.267  1.00  0.00     0.008 C 
BRANCH   9  11
ATOM     11  C   UNL     1      16.005  23.658   1.674  1.00  0.00    -0.002 C 
ATOM     12  C   UNL     1      16.100  25.003   0.900  1.00  0.00     0.005 C 
ATOM     13  C   UNL     1      15.709  22.593   0.556  1.00  0.00    -0.026 C 
ATOM     14  C   UNL     1      15.568  24.768  -0.520  1.00  0.00     0.005 C 
ATOM     15  C   UNL     1      14.890  23.403  -0.463  1.00  0.00    -0.001 C 
ATOM     16  C   UNL     1      14.922  21.299   0.950  1.00  0.00     0.007 C 
ATOM     17  C   UNL     1      17.092  22.158  -0.034  1.00  0.00     0.012 C 
ATOM     18  C   UNL     1      14.664  22.661  -1.811  1.00  0.00     0.000 C 
ATOM     19  C   UNL     1      13.859  20.876  -0.098  1.00  0.00     0.005 C 
ATOM     20  C   UNL     1      14.301  21.128  -1.576  1.00  0.00     0.003 C 
ATOM     21  C   UNL     1      13.624  23.440  -2.673  1.00  0.00     0.031 C 
ATOM     22  C   UNL     1      13.267  20.569  -2.634  1.00  0.00    -0.008 C 
ATOM     23  C   UNL     1      12.251  22.842  -2.630  1.00  0.00    -0.027 C 
ATOM     24  C   UNL     1      12.051  21.511  -2.652  1.00  0.00    -0.065 C 
ATOM     25  C   UNL     1      12.888  19.070  -2.337  1.00  0.00     0.014 C 
ATOM     26  C   UNL     1      13.929  20.559  -4.044  1.00  0.00     0.016 C 
ATOM     27  C   UNL     1      10.612  21.039  -2.528  1.00  0.00     0.063 C 
ATOM     28  C   UNL     1      11.529  18.875  -1.662  1.00  0.00     0.033 C 
ATOM     29  C   UNL     1      10.429  19.523  -2.500  1.00  0.00     0.118 C 
BRANCH  29  30
ATOM     30  O   UNL     1      10.437  19.022  -3.813  1.00  0.00    -0.393 OA
ATOM     31  H   UNL     1      11.292  18.524  -3.932  1.00  0.00     0.210 HD
ENDBRANCH  29  30
ENDBRANCH   9  11
ENDBRANCH   1   9
TORSDOF 7
ENDMDL
MODEL 4
REMARK VINA RESULT:    26.334      2.246      5.026
REMARK INTER + INTRA:          35.707
REMARK INTER:                  36.396
REMARK INTRA:                  -0.689
REMARK UNBOUND:                -0.634
REMARK SMILES CC[C@@H](CC[C@@H](C)[C@@H]1CC[C@H]2[C@@H]3CC=C4C[C@@H](O)CC[C@]4(C)[C@@H]3CC[C@@]21C)C(C)C
REMARK SMILES IDX 5 1 4 2 3 3 2 4 1 5 28 6 29 7 30 8 6 9 7 10 8 11 9 12 26 13
REMARK SMILES IDX 10 14 11 15 25 16 27 17 12 18 24 19 23 20 13 21 21 22 14 23
REMARK SMILES IDX 15 24 20 25 22 26 16 27 19 28 17 29 18 30
REMARK H PARENT 18 31
REMARK Flexibility Score: inf
ROOT
ATOM      1  C   UNL     1      15.145  23.621   4.903  1.00  0.00     0.004 C 
ENDROOT
BRANCH   1   2
ATOM      2  C   UNL     1      14.374  23.167   6.163  1.00  0.00     0.004 C 
BRANCH   2   3
ATOM      3  C   UNL     1      14.300  21.621   6.332  1.00  0.00    -0.009 C 
BRANCH   3   4
ATOM      4  C   UNL     1      12.872  21.116   5.961  1.00  0.00     0.000 C 
ATOM      5  C   UNL     1      12.880  19.728   5.310  1.00  0.00     0.004 C 
ENDBRANCH   3   4
BRANCH   3   6
ATOM      6  C   UNL     1      14.771  21.139   7.749  1.00  0.00    -0.014 C 
ATOM      7  C   UNL     1      13.994  21.840   8.879  1.00  0.00     0.007 C 
ATOM      8  C   UNL     1      16.275  21.370   7.976  1.00  0.00     0.007 C 
ENDBRANCH   3   6
ENDBRANCH   2   3
ENDBRANCH   1   2
BRANCH   1   9
ATOM      9  C   UNL     1      14.774  22.825   3.619  1.00  0.00    -0.011 C 
ATOM     10  C   UNL     1      13.270  23.012   3.332  1.00  0.00     0.008 C 
BRANCH   9  11
ATOM     11  C   UNL     1      15.709  23.163   2.398  1.00  0.00    -0.002 C 
ATOM     12  C   UNL     1      15.650  24.657   1.974  1.00  0.00     0.005 C 
ATOM     13  C   UNL     1      15.516  22.374   1.052  1.00  0.00    -0.026 C 
ATOM     14  C   UNL     1      15.129  24.716   0.531  1.00  0.00     0.005 C 
ATOM     15  C   UNL     1      14.603  23.313   0.247  1.00  0.00    -0.001 C 
ATOM     16  C   UNL     1      14.878  20.946   1.111  1.00  0.00     0.007 C 
ATOM     17  C   UNL     1      16.930  22.245   0.394  1.00  0.00     0.012 C 
ATOM     18  C   UNL     1      14.441  22.899  -1.243  1.00  0.00     0.000 C 
ATOM     19  C   UNL     1      13.854  20.677  -0.024  1.00  0.00     0.005 C 
ATOM     20  C   UNL     1      14.248  21.325  -1.391  1.00  0.00     0.003 C 
ATOM     21  C   UNL     1      13.313  23.747  -1.906  1.00  0.00     0.031 C 
ATOM     22  C   UNL     1      13.268  20.931  -2.567  1.00  0.00    -0.008 C 
ATOM     23  C   UNL     1      12.012  23.013  -2.029  1.00  0.00    -0.027 C 
ATOM     24  C   UNL     1      11.957  21.713  -2.374  1.00  0.00    -0.065 C 
ATOM     25  C   UNL     1      13.056  19.373  -2.646  1.00  0.00     0.014 C 
ATOM     26  C   UNL     1      13.910  21.332  -3.928  1.00  0.00     0.016 C 
ATOM     27  C   UNL     1      10.578  21.073  -2.388  1.00  0.00     0.063 C 
ATOM     28  C   UNL     1      11.733  18.875  -2.058  1.00  0.00     0.033 C 
ATOM     29  C   UNL     1      10.560  19.584  -2.730  1.00  0.00     0.118 C 
BRANCH  29  30
ATOM     30  O   UNL     1      10.607  19.419  -4.125  1.00  0.00    -0.393 OA
ATOM     31  H   UNL     1       9.800  18.897  -4.386  1.00  0.00     0.210 HD
ENDBRANCH  29  30
ENDBRANCH   9  11
ENDBRANCH   1   9
TORSDOF 7
ENDMDL
MODEL 5
REMARK VINA RESULT:    26.556      1.897      3.025
REMARK INTER + INTRA:          36.013
REMARK INTER:                  35.264
REMARK INTRA:                   0.749
REMARK UNBOUND:                -0.634
REMARK SMILES CC[C@@H](CC[C@@H](C)[C@@H]1CC[C@H]2[C@@H]3CC=C4C[C@@H](O)CC[C@]4(C)[C@@H]3CC[C@@]21C)C(C)C
REMARK SMILES IDX 5 1 4 2 3 3 2 4 1 5 28 6 29 7 30 8 6 9 7 10 8 11 9 12 26 13
REMARK SMILES IDX 10 14 11 15 25 16 27 17 12 18 24 19 23 20 13 21 21 22 14 23
REMARK SMILES IDX 15 24 20 25 22 26 16 27 19 28 17 29 18 30
REMARK H PARENT 18 31
REMARK Flexibility Score: inf
ROOT
ATOM      1  C   UNL     1      15.050  20.720   7.077  1.00  0.00     0.004 C 
ENDROOT
BRANCH   1   2
ATOM      2  C   UNL     1      16.207  21.486   7.756  1.00  0.00     0.004 C 
BRANCH   2   3
ATOM      3  C   UNL     1      16.406  21.122   9.257  1.00  0.00    -0.009 C 
BRANCH   3   4
ATOM      4  C   UNL     1      15.382  21.907  10.133  1.00  0.00     0.000 C 
ATOM      5  C   UNL     1      13.925  21.602   9.765  1.00  0.00     0.004 C 
ENDBRANCH   3   4
BRANCH   3   6
ATOM      6  C   UNL     1      17.889  21.304   9.737  1.00  0.00    -0.014 C 
ATOM      7  C   UNL     1      17.992  22.299  10.909  1.00  0.00     0.007 C 
ATOM      8  C   UNL     1      18.815  21.787   8.606  1.00  0.00     0.007 C 
ENDBRANCH   3   6
ENDBRANCH   2   3
ENDBRANCH   1   2
BRANCH   1   9
ATOM      9  C   UNL     1      13.889  21.635   6.593  1.00  0.00    -0.011 C 
ATOM     10  C   UNL     1      14.486  22.851   5.855  1.00  0.00     0.008 C 
BRANCH   9  11
ATOM     11  C   UNL     1      12.797  20.855   5.770  1.00  0.00    -0.002 C 
ATOM     12  C   UNL     1      13.138  19.351   5.567  1.00  0.00     0.005 C 
ATOM     13  C   UNL     1      12.426  21.362   4.328  1.00  0.00    -0.026 C 
ATOM     14  C   UNL     1      13.271  19.099   4.059  1.00  0.00     0.005 C 
ATOM     15  C   UNL     1      13.318  20.488   3.431  1.00  0.00    -0.001 C 
ATOM     16  C   UNL     1      12.658  22.871   3.987  1.00  0.00     0.007 C 
ATOM     17  C   UNL     1      10.908  21.045   4.112  1.00  0.00     0.012 C 
ATOM     18  C   UNL     1      12.979  20.601   1.918  1.00  0.00     0.000 C 
ATOM     19  C   UNL     1      13.250  23.104   2.572  1.00  0.00     0.005 C 
ATOM     20  C   UNL     1      12.706  22.111   1.494  1.00  0.00     0.003 C 
ATOM     21  C   UNL     1      14.083  19.889   1.077  1.00  0.00     0.031 C 
ATOM     22  C   UNL     1      13.215  22.445   0.034  1.00  0.00    -0.008 C 
ATOM     23  C   UNL     1      15.069  20.839   0.466  1.00  0.00    -0.027 C 
ATOM     24  C   UNL     1      14.690  22.018  -0.063  1.00  0.00    -0.065 C 
ATOM     25  C   UNL     1      12.981  23.959  -0.328  1.00  0.00     0.014 C 
ATOM     26  C   UNL     1      12.377  21.636  -1.000  1.00  0.00     0.016 C 
ATOM     27  C   UNL     1      15.800  22.917  -0.581  1.00  0.00     0.063 C 
ATOM     28  C   UNL     1      14.230  24.839  -0.240  1.00  0.00     0.033 C 
ATOM     29  C   UNL     1      15.338  24.268  -1.123  1.00  0.00     0.118 C 
BRANCH  29  30
ATOM     30  O   UNL     1      14.896  24.119  -2.449  1.00  0.00    -0.393 OA
ATOM     31  H   UNL     1      15.494  23.453  -2.885  1.00  0.00     0.210 HD
ENDBRANCH  29  30
ENDBRANCH   9  11
ENDBRANCH   1   9
TORSDOF 7
ENDMDL
MODEL 6
REMARK VINA RESULT:    26.597      2.261      4.830
REMARK INTER + INTRA:          36.070
REMARK INTER:                  36.588
REMARK INTRA:                  -0.517
REMARK UNBOUND:                -0.634
REMARK SMILES CC[C@@H](CC[C@@H](C)[C@@H]1CC[C@H]2[C@@H]3CC=C4C[C@@H](O)CC[C@]4(C)[C@@H]3CC[C@@]21C)C(C)C
REMARK SMILES IDX 5 1 4 2 3 3 2 4 1 5 28 6 29 7 30 8 6 9 7 10 8 11 9 12 26 13
REMARK SMILES IDX 10 14 11 15 25 16 27 17 12 18 24 19 23 20 13 21 21 22 14 23
REMARK SMILES IDX 15 24 20 25 22 26 16 27 19 28 17 29 18 30
REMARK H PARENT 18 31
REMARK Flexibility Score: inf
ROOT
ATOM      1  C   UNL     1      15.806  24.811   3.671  1.00  0.00     0.004 C 
ENDROOT
BRANCH   1   2
ATOM      2  C   UNL     1      16.794  24.764   4.857  1.00  0.00     0.004 C 
BRANCH   2   3
ATOM      3  C   UNL     1      16.115  24.931   6.248  1.00  0.00    -0.009 C 
BRANCH   3   4
ATOM      4  C   UNL     1      14.681  24.319   6.213  1.00  0.00     0.000 C 
ATOM      5  C   UNL     1      14.673  22.804   6.449  1.00  0.00     0.004 C 
ENDBRANCH   3   4
BRANCH   3   6
ATOM      6  C   UNL     1      16.135  26.413   6.763  1.00  0.00    -0.014 C 
ATOM      7  C   UNL     1      14.719  27.014   6.830  1.00  0.00     0.007 C 
ATOM      8  C   UNL     1      17.011  27.325   5.886  1.00  0.00     0.007 C 
ENDBRANCH   3   6
ENDBRANCH   2   3
ENDBRANCH   1   2
BRANCH   1   9
ATOM      9  C   UNL     1      15.727  23.484   2.864  1.00  0.00    -0.011 C 
ATOM     10  C   UNL     1      14.251  23.046   2.766  1.00  0.00     0.008 C 
BRANCH   9  11
ATOM     11  C   UNL     1      16.468  23.565   1.477  1.00  0.00    -0.002 C 
ATOM     12  C   UNL     1      16.396  24.974   0.823  1.00  0.00     0.005 C 
ATOM     13  C   UNL     1      16.035  22.586   0.326  1.00  0.00    -0.026 C 
ATOM     14  C   UNL     1      15.655  24.835  -0.513  1.00  0.00     0.005 C 
ATOM     15  C   UNL     1      15.041  23.440  -0.477  1.00  0.00    -0.001 C 
ATOM     16  C   UNL     1      15.364  21.228   0.717  1.00  0.00     0.007 C 
ATOM     17  C   UNL     1      17.322  22.268  -0.507  1.00  0.00     0.012 C 
ATOM     18  C   UNL     1      14.630  22.804  -1.836  1.00  0.00     0.000 C 
ATOM     19  C   UNL     1      14.165  20.845  -0.190  1.00  0.00     0.005 C 
ATOM     20  C   UNL     1      14.360  21.242  -1.689  1.00  0.00     0.003 C 
ATOM     21  C   UNL     1      13.442  23.604  -2.454  1.00  0.00     0.031 C 
ATOM     22  C   UNL     1      13.192  20.727  -2.622  1.00  0.00    -0.008 C 
ATOM     23  C   UNL     1      12.113  22.941  -2.255  1.00  0.00    -0.027 C 
ATOM     24  C   UNL     1      11.956  21.608  -2.367  1.00  0.00    -0.065 C 
ATOM     25  C   UNL     1      12.914  19.192  -2.407  1.00  0.00     0.014 C 
ATOM     26  C   UNL     1      13.623  20.867  -4.112  1.00  0.00     0.016 C 
ATOM     27  C   UNL     1      10.571  21.060  -2.066  1.00  0.00     0.063 C 
ATOM     28  C   UNL     1      11.685  18.876  -1.552  1.00  0.00     0.033 C 
ATOM     29  C   UNL     1      10.446  19.540  -2.149  1.00  0.00     0.118 C 
BRANCH  29  30
ATOM     30  O   UNL     1      10.265  19.153  -3.487  1.00  0.00    -0.393 OA
ATOM     31  H   UNL     1      10.836  19.748  -4.045  1.00  0.00     0.210 HD
ENDBRANCH  29  30
ENDBRANCH   9  11
ENDBRANCH   1   9
TORSDOF 7
ENDMDL
MODEL 7
REMARK VINA RESULT:    26.869      3.484      7.856
REMARK INTER + INTRA:          36.445
REMARK INTER:                  37.019
REMARK INTRA:                  -0.575
REMARK UNBOUND:                -0.634
REMARK SMILES CC[C@@H](CC[C@@H](C)[C@@H]1CC[C@H]2[C@@H]3CC=C4C[C@@H](O)CC[C@]4(C)[C@@H]3CC[C@@]21C)C(C)C
REMARK SMILES IDX 5 1 4 2 3 3 2 4 1 5 28 6 29 7 30 8 6 9 7 10 8 11 9 12 26 13
REMARK SMILES IDX 10 14 11 15 25 16 27 17 12 18 24 19 23 20 13 21 21 22 14 23
REMARK SMILES IDX 15 24 20 25 22 26 16 27 19 28 17 29 18 30
REMARK H PARENT 18 31
REMARK Flexibility Score: inf
ROOT
ATOM      1  C   UNL     1      13.357  23.138  -3.208  1.00  0.00     0.004 C 
ENDROOT
BRANCH   1   2
ATOM      2  C   UNL     1      12.528  21.926  -3.687  1.00  0.00     0.004 C 
BRANCH   2   3
ATOM      3  C   UNL     1      12.908  20.589  -2.987  1.00  0.00    -0.009 C 
BRANCH   3   4
ATOM      4  C   UNL     1      13.513  19.599  -4.029  1.00  0.00     0.000 C 
ATOM      5  C   UNL     1      15.044  19.534  -3.972  1.00  0.00     0.004 C 
ENDBRANCH   3   4
BRANCH   3   6
ATOM      6  C   UNL     1      11.720  19.968  -2.171  1.00  0.00    -0.014 C 
ATOM      7  C   UNL     1      12.218  18.990  -1.090  1.00  0.00     0.007 C 
ATOM      8  C   UNL     1      10.715  19.229  -3.072  1.00  0.00     0.007 C 
ENDBRANCH   3   6
ENDBRANCH   2   3
ENDBRANCH   1   2
BRANCH   1   9
ATOM      9  C   UNL     1      13.146  23.491  -1.708  1.00  0.00    -0.011 C 
ATOM     10  C   UNL     1      11.900  22.743  -1.189  1.00  0.00     0.008 C 
BRANCH   9  11
ATOM     11  C   UNL     1      14.440  23.266  -0.838  1.00  0.00    -0.002 C 
ATOM     12  C   UNL     1      15.339  22.111  -1.361  1.00  0.00     0.005 C 
ATOM     13  C   UNL     1      14.281  22.964   0.697  1.00  0.00    -0.026 C 
ATOM     14  C   UNL     1      15.416  21.041  -0.263  1.00  0.00     0.005 C 
ATOM     15  C   UNL     1      14.332  21.428   0.737  1.00  0.00    -0.001 C 
ATOM     16  C   UNL     1      12.989  23.465   1.424  1.00  0.00     0.007 C 
ATOM     17  C   UNL     1      15.518  23.599   1.415  1.00  0.00     0.012 C 
ATOM     18  C   UNL     1      14.446  20.847   2.175  1.00  0.00     0.000 C 
ATOM     19  C   UNL     1      12.400  22.434   2.422  1.00  0.00     0.005 C 
ATOM     20  C   UNL     1      13.486  21.612   3.190  1.00  0.00     0.003 C 
ATOM     21  C   UNL     1      14.236  19.302   2.137  1.00  0.00     0.031 C 
ATOM     22  C   UNL     1      12.875  20.664   4.297  1.00  0.00    -0.008 C 
ATOM     23  C   UNL     1      12.861  18.879   2.560  1.00  0.00    -0.027 C 
ATOM     24  C   UNL     1      12.219  19.466   3.587  1.00  0.00    -0.065 C 
ATOM     25  C   UNL     1      11.887  21.442   5.245  1.00  0.00     0.014 C 
ATOM     26  C   UNL     1      14.018  20.149   5.221  1.00  0.00     0.016 C 
ATOM     27  C   UNL     1      10.802  18.991   3.862  1.00  0.00     0.063 C 
ATOM     28  C   UNL     1      10.403  21.211   4.952  1.00  0.00     0.033 C 
ATOM     29  C   UNL     1      10.084  19.718   4.998  1.00  0.00     0.118 C 
BRANCH  29  30
ATOM     30  O   UNL     1      10.467  19.161   6.230  1.00  0.00    -0.393 OA
ATOM     31  H   UNL     1      10.655  19.919   6.849  1.00  0.00     0.210 HD
ENDBRANCH  29  30
ENDBRANCH   9  11
ENDBRANCH   1   9
TORSDOF 7
ENDMDL
