MODEL 1
REMARK VINA RESULT:    35.973      0.000      0.000
REMARK INTER + INTRA:          40.803
REMARK INTER:                  39.128
REMARK INTRA:                   1.676
REMARK UNBOUND:                 1.676
REMARK SMILES C[C@H]1[C@H](C)CC[C@]2(C(=O)[O-])CC[C@]3(C)C(=CC[C@H]4[C@]5(C)CC[C@@H](O)C(C)(C)[C@@H]5CC[C@]43C)[C@@H]12
REMARK SMILES IDX 7 1 6 2 11 3 33 4 5 5 12 6 15 7 2 8 3 9 13 10 16 11 1 12
REMARK SMILES IDX 4 13 14 14 31 15 17 16 18 17 30 18 32 19 19 20 29 21 28 22
REMARK SMILES IDX 21 23 20 24 25 25 22 26 23 27 26 28 27 29 8 30 9 31 10 32
REMARK SMILES IDX 24 33
REMARK H PARENT 24 34
REMARK Flexibility Score: inf
ROOT
ATOM      1  C   UNL     1      14.925  39.754 -12.472  1.00  0.00     0.017 C 
ATOM      2  C   UNL     1      16.407  39.527 -12.909  1.00  0.00     0.014 C 
ATOM      3  C   UNL     1      14.917  40.880 -11.403  1.00  0.00     0.014 C 
ATOM      4  C   UNL     1      14.396  38.416 -11.858  1.00  0.00     0.030 C 
ATOM      5  C   UNL     1      16.600  38.326 -13.853  1.00  0.00     0.004 C 
ATOM      6  C   UNL     1      13.598  41.000 -10.609  1.00  0.00     0.013 C 
ATOM      7  C   UNL     1      13.094  38.627 -11.055  1.00  0.00    -0.063 C 
ATOM      8  C   UNL     1      14.502  37.207 -12.861  1.00  0.00    -0.003 C 
ATOM      9  C   UNL     1      15.982  37.011 -13.314  1.00  0.00    -0.011 C 
ATOM     10  C   UNL     1      13.113  39.671  -9.926  1.00  0.00    -0.006 C 
ATOM     11  C   UNL     1      11.975  37.976 -11.377  1.00  0.00    -0.027 C 
ATOM     12  C   UNL     1      13.597  37.269 -14.125  1.00  0.00     0.008 C 
ATOM     13  C   UNL     1      16.864  36.379 -12.219  1.00  0.00     0.008 C 
ATOM     14  C   UNL     1      14.182  39.216  -8.874  1.00  0.00     0.017 C 
ATOM     15  C   UNL     1      11.678  39.861  -9.175  1.00  0.00    -0.020 C 
ATOM     16  C   UNL     1      10.607  38.439 -11.020  1.00  0.00     0.032 C 
ATOM     17  C   UNL     1      10.485  39.774 -10.209  1.00  0.00     0.006 C 
ATOM     18  C   UNL     1      11.401  38.746  -8.120  1.00  0.00     0.008 C 
ATOM     19  C   UNL     1      11.733  41.232  -8.419  1.00  0.00     0.012 C 
ATOM     20  C   UNL     1       8.988  39.888  -9.621  1.00  0.00    -0.025 C 
ATOM     21  C   UNL     1      10.010  38.826  -7.460  1.00  0.00     0.005 C 
ATOM     22  C   UNL     1       8.780  38.862  -8.421  1.00  0.00     0.003 C 
ATOM     23  C   UNL     1       8.624  41.344  -9.180  1.00  0.00     0.010 C 
ATOM     24  C   UNL     1       8.012  39.561 -10.805  1.00  0.00     0.012 C 
ATOM     25  C   UNL     1       7.410  39.040  -7.618  1.00  0.00    -0.006 C 
ATOM     26  C   UNL     1       7.277  41.477  -8.452  1.00  0.00     0.033 C 
ATOM     27  C   UNL     1       7.183  40.534  -7.240  1.00  0.00     0.120 C 
ATOM     28  C   UNL     1       7.425  38.208  -6.301  1.00  0.00     0.014 C 
ATOM     29  C   UNL     1       6.198  38.485  -8.429  1.00  0.00     0.014 C 
ENDROOT
BRANCH   1  30
ATOM     30  C   UNL     1      14.074  40.243 -13.642  1.00  0.00     0.048 C 
ATOM     31  O   UNL     1      14.240  41.394 -14.125  1.00  0.00    -0.550 OA
ATOM     32  O   UNL     1      13.023  39.471 -14.122  1.00  0.00    -0.550 OA
ENDBRANCH   1  30
BRANCH  27  33
ATOM     33  O   UNL     1       5.930  40.682  -6.615  1.00  0.00    -0.393 OA
ATOM     34  H   UNL     1       5.362  39.926  -6.918  1.00  0.00     0.210 HD
ENDBRANCH  27  33
TORSDOF 2
ENDMDL
