MODEL 1
REMARK VINA RESULT:    -3.094      0.000      0.000
REMARK INTER + INTRA:          -8.901
REMARK INTER:                  -5.988
REMARK INTRA:                  -2.912
REMARK UNBOUND:                -2.912
REMARK SMILES CCCCCCCCCCCCCCCCCC(=O)[O-]
REMARK SMILES IDX 10 1 11 2 12 3 13 4 14 5 15 6 16 7 17 8 18 9 19 10 20 11
REMARK SMILES IDX 9 12 8 13 7 14 6 15 5 16 4 17 3 18 2 19 1 20
REMARK H PARENT
REMARK Flexibility Score: inf
ROOT
ATOM      1  C   UNL     1      58.543  28.624  53.593  1.00  0.00     0.000 C 
ENDROOT
BRANCH   1   2
ATOM      2  C   UNL     1      57.702  29.282  52.491  1.00  0.00     0.000 C 
BRANCH   2   3
ATOM      3  C   UNL     1      58.584  29.733  51.321  1.00  0.00     0.000 C 
BRANCH   3   4
ATOM      4  C   UNL     1      57.998  29.268  49.979  1.00  0.00     0.000 C 
BRANCH   4   5
ATOM      5  C   UNL     1      59.076  28.759  49.008  1.00  0.00     0.000 C 
BRANCH   5   6
ATOM      6  C   UNL     1      60.430  28.521  49.701  1.00  0.00     0.000 C 
BRANCH   6   7
ATOM      7  C   UNL     1      61.060  27.163  49.342  1.00  0.00     0.006 C 
BRANCH   7   8
ATOM      8  C   UNL     1      62.372  26.866  50.089  1.00  0.00     0.053 C 
BRANCH   8   9
ATOM      9  C   UNL     1      63.562  27.497  49.433  1.00  0.00     0.041 C 
ATOM     10  O   UNL     1      63.540  27.765  48.203  1.00  0.00    -0.550 OA
ATOM     11  O   UNL     1      64.711  27.757  50.171  1.00  0.00    -0.550 OA
ENDBRANCH   8   9
ENDBRANCH   7   8
ENDBRANCH   6   7
ENDBRANCH   5   6
ENDBRANCH   4   5
ENDBRANCH   3   4
ENDBRANCH   2   3
ENDBRANCH   1   2
BRANCH   1  12
ATOM     12  C   UNL     1      59.311  27.385  53.102  1.00  0.00     0.000 C 
BRANCH  12  13
ATOM     13  C   UNL     1      58.405  26.169  52.812  1.00  0.00    -0.000 C 
BRANCH  13  14
ATOM     14  C   UNL     1      58.831  25.419  51.538  1.00  0.00    -0.000 C 
BRANCH  14  15
ATOM     15  C   UNL     1      57.822  25.591  50.380  1.00  0.00    -0.000 C 
BRANCH  15  16
ATOM     16  C   UNL     1      56.409  25.994  50.844  1.00  0.00    -0.000 C 
BRANCH  16  17
ATOM     17  C   UNL     1      55.330  25.958  49.745  1.00  0.00    -0.000 C 
BRANCH  17  18
ATOM     18  C   UNL     1      54.240  27.044  49.861  1.00  0.00    -0.000 C 
BRANCH  18  19
ATOM     19  C   UNL     1      54.575  28.200  50.820  1.00  0.00    -0.003 C 
ATOM     20  C   UNL     1      53.995  29.539  50.366  1.00  0.00     0.004 C 
ENDBRANCH  18  19
ENDBRANCH  17  18
ENDBRANCH  16  17
ENDBRANCH  15  16
ENDBRANCH  14  15
ENDBRANCH  13  14
ENDBRANCH  12  13
ENDBRANCH   1  12
TORSDOF 16
ENDMDL
MODEL 2
REMARK VINA RESULT:    -3.081      9.621     12.355
REMARK INTER + INTRA:          -8.876
REMARK INTER:                  -6.036
REMARK INTRA:                  -2.840
REMARK UNBOUND:                -2.912
REMARK SMILES CCCCCCCCCCCCCCCCCC(=O)[O-]
REMARK SMILES IDX 10 1 11 2 12 3 13 4 14 5 15 6 16 7 17 8 18 9 19 10 20 11
REMARK SMILES IDX 9 12 8 13 7 14 6 15 5 16 4 17 3 18 2 19 1 20
REMARK H PARENT
REMARK Flexibility Score: inf
ROOT
ATOM      1  C   UNL     1      64.637  32.857  60.068  1.00  0.00     0.000 C 
ENDROOT
BRANCH   1   2
ATOM      2  C   UNL     1      64.859  31.388  60.452  1.00  0.00     0.000 C 
BRANCH   2   3
ATOM      3  C   UNL     1      63.895  30.957  61.564  1.00  0.00     0.000 C 
BRANCH   3   4
ATOM      4  C   UNL     1      63.620  29.447  61.500  1.00  0.00     0.000 C 
BRANCH   4   5
ATOM      5  C   UNL     1      62.199  29.085  61.961  1.00  0.00     0.000 C 
BRANCH   5   6
ATOM      6  C   UNL     1      61.934  27.570  61.925  1.00  0.00     0.000 C 
BRANCH   6   7
ATOM      7  C   UNL     1      60.763  27.185  61.002  1.00  0.00     0.006 C 
BRANCH   7   8
ATOM      8  C   UNL     1      59.573  28.158  61.065  1.00  0.00     0.053 C 
BRANCH   8   9
ATOM      9  C   UNL     1      58.338  27.521  61.626  1.00  0.00     0.041 C 
ATOM     10  O   UNL     1      57.224  28.097  61.518  1.00  0.00    -0.550 OA
ATOM     11  O   UNL     1      58.421  26.308  62.299  1.00  0.00    -0.550 OA
ENDBRANCH   8   9
ENDBRANCH   7   8
ENDBRANCH   6   7
ENDBRANCH   5   6
ENDBRANCH   4   5
ENDBRANCH   3   4
ENDBRANCH   2   3
ENDBRANCH   1   2
BRANCH   1  12
ATOM     12  C   UNL     1      64.133  33.713  61.242  1.00  0.00     0.000 C 
BRANCH  12  13
ATOM     13  C   UNL     1      63.385  34.990  60.802  1.00  0.00    -0.000 C 
BRANCH  13  14
ATOM     14  C   UNL     1      61.859  34.841  60.926  1.00  0.00    -0.000 C 
BRANCH  14  15
ATOM     15  C   UNL     1      61.280  33.806  59.936  1.00  0.00    -0.000 C 
BRANCH  15  16
ATOM     16  C   UNL     1      60.772  32.518  60.612  1.00  0.00    -0.000 C 
BRANCH  16  17
ATOM     17  C   UNL     1      60.482  31.351  59.650  1.00  0.00    -0.000 C 
BRANCH  17  18
ATOM     18  C   UNL     1      61.593  31.059  58.619  1.00  0.00    -0.000 C 
BRANCH  18  19
ATOM     19  C   UNL     1      61.742  29.579  58.227  1.00  0.00    -0.003 C 
ATOM     20  C   UNL     1      63.181  29.196  57.879  1.00  0.00     0.004 C 
ENDBRANCH  18  19
ENDBRANCH  17  18
ENDBRANCH  16  17
ENDBRANCH  15  16
ENDBRANCH  14  15
ENDBRANCH  13  14
ENDBRANCH  12  13
ENDBRANCH   1  12
TORSDOF 16
ENDMDL
MODEL 3
REMARK VINA RESULT:    -3.046      9.579     12.348
REMARK INTER + INTRA:          -8.808
REMARK INTER:                  -6.354
REMARK INTRA:                  -2.455
REMARK UNBOUND:                -2.912
REMARK SMILES CCCCCCCCCCCCCCCCCC(=O)[O-]
REMARK SMILES IDX 10 1 11 2 12 3 13 4 14 5 15 6 16 7 17 8 18 9 19 10 20 11
REMARK SMILES IDX 9 12 8 13 7 14 6 15 5 16 4 17 3 18 2 19 1 20
REMARK H PARENT
REMARK Flexibility Score: inf
ROOT
ATOM      1  C   UNL     1      63.291  30.073  58.039  1.00  0.00     0.000 C 
ENDROOT
BRANCH   1   2
ATOM      2  C   UNL     1      61.777  30.145  58.280  1.00  0.00     0.000 C 
BRANCH   2   3
ATOM      3  C   UNL     1      61.424  31.306  59.218  1.00  0.00     0.000 C 
BRANCH   3   4
ATOM      4  C   UNL     1      60.507  30.834  60.356  1.00  0.00     0.000 C 
BRANCH   4   5
ATOM      5  C   UNL     1      61.114  31.082  61.746  1.00  0.00     0.000 C 
BRANCH   5   6
ATOM      6  C   UNL     1      62.206  30.058  62.104  1.00  0.00     0.000 C 
BRANCH   6   7
ATOM      7  C   UNL     1      61.832  28.616  61.714  1.00  0.00     0.006 C 
BRANCH   7   8
ATOM      8  C   UNL     1      63.027  27.764  61.253  1.00  0.00     0.053 C 
BRANCH   8   9
ATOM      9  C   UNL     1      62.982  26.368  61.799  1.00  0.00     0.041 C 
ATOM     10  O   UNL     1      62.121  26.053  62.660  1.00  0.00    -0.550 OA
ATOM     11  O   UNL     1      63.913  25.425  61.382  1.00  0.00    -0.550 OA
ENDBRANCH   8   9
ENDBRANCH   7   8
ENDBRANCH   6   7
ENDBRANCH   5   6
ENDBRANCH   4   5
ENDBRANCH   3   4
ENDBRANCH   2   3
ENDBRANCH   1   2
BRANCH   1  12
ATOM     12  C   UNL     1      64.110  30.690  59.184  1.00  0.00     0.000 C 
BRANCH  12  13
ATOM     13  C   UNL     1      65.128  31.753  58.716  1.00  0.00    -0.000 C 
BRANCH  13  14
ATOM     14  C   UNL     1      64.812  33.149  59.283  1.00  0.00    -0.000 C 
BRANCH  14  15
ATOM     15  C   UNL     1      64.274  33.095  60.730  1.00  0.00    -0.000 C 
BRANCH  15  16
ATOM     16  C   UNL     1      64.307  34.455  61.454  1.00  0.00    -0.000 C 
BRANCH  16  17
ATOM     17  C   UNL     1      63.028  35.300  61.307  1.00  0.00    -0.000 C 
BRANCH  17  18
ATOM     18  C   UNL     1      61.798  34.539  60.767  1.00  0.00    -0.000 C 
BRANCH  18  19
ATOM     19  C   UNL     1      61.033  35.256  59.642  1.00  0.00    -0.003 C 
ATOM     20  C   UNL     1      60.150  36.395  60.153  1.00  0.00     0.004 C 
ENDBRANCH  18  19
ENDBRANCH  17  18
ENDBRANCH  16  17
ENDBRANCH  15  16
ENDBRANCH  14  15
ENDBRANCH  13  14
ENDBRANCH  12  13
ENDBRANCH   1  12
TORSDOF 16
ENDMDL
MODEL 4
REMARK VINA RESULT:    -2.996      2.188      3.614
REMARK INTER + INTRA:          -8.711
REMARK INTER:                  -5.752
REMARK INTRA:                  -2.960
REMARK UNBOUND:                -2.912
REMARK SMILES CCCCCCCCCCCCCCCCCC(=O)[O-]
REMARK SMILES IDX 10 1 11 2 12 3 13 4 14 5 15 6 16 7 17 8 18 9 19 10 20 11
REMARK SMILES IDX 9 12 8 13 7 14 6 15 5 16 4 17 3 18 2 19 1 20
REMARK H PARENT
REMARK Flexibility Score: inf
ROOT
ATOM      1  C   UNL     1      56.748  28.913  53.206  1.00  0.00     0.000 C 
ENDROOT
BRANCH   1   2
ATOM      2  C   UNL     1      57.839  28.405  52.254  1.00  0.00     0.000 C 
BRANCH   2   3
ATOM      3  C   UNL     1      58.199  29.469  51.210  1.00  0.00     0.000 C 
BRANCH   3   4
ATOM      4  C   UNL     1      58.135  28.889  49.789  1.00  0.00     0.000 C 
BRANCH   4   5
ATOM      5  C   UNL     1      59.529  28.634  49.192  1.00  0.00     0.000 C 
BRANCH   5   6
ATOM      6  C   UNL     1      59.973  27.167  49.337  1.00  0.00     0.000 C 
BRANCH   6   7
ATOM      7  C   UNL     1      58.790  26.188  49.448  1.00  0.00     0.006 C 
BRANCH   7   8
ATOM      8  C   UNL     1      58.908  25.198  50.620  1.00  0.00     0.053 C 
BRANCH   8   9
ATOM      9  C   UNL     1      60.257  24.550  50.692  1.00  0.00     0.041 C 
ATOM     10  O   UNL     1      61.034  24.809  51.648  1.00  0.00    -0.550 OA
ATOM     11  O   UNL     1      60.672  23.686  49.686  1.00  0.00    -0.550 OA
ENDBRANCH   8   9
ENDBRANCH   7   8
ENDBRANCH   6   7
ENDBRANCH   5   6
ENDBRANCH   4   5
ENDBRANCH   3   4
ENDBRANCH   2   3
ENDBRANCH   1   2
BRANCH   1  12
ATOM     12  C   UNL     1      55.795  29.920  52.541  1.00  0.00     0.000 C 
BRANCH  12  13
ATOM     13  C   UNL     1      54.441  29.307  52.121  1.00  0.00    -0.000 C 
BRANCH  13  14
ATOM     14  C   UNL     1      54.214  29.388  50.602  1.00  0.00    -0.000 C 
BRANCH  14  15
ATOM     15  C   UNL     1      53.954  28.005  49.964  1.00  0.00    -0.000 C 
BRANCH  15  16
ATOM     16  C   UNL     1      55.187  27.080  49.966  1.00  0.00    -0.000 C 
BRANCH  16  17
ATOM     17  C   UNL     1      54.956  25.692  50.592  1.00  0.00    -0.000 C 
BRANCH  17  18
ATOM     18  C   UNL     1      55.449  25.538  52.046  1.00  0.00    -0.000 C 
BRANCH  18  19
ATOM     19  C   UNL     1      54.349  25.220  53.074  1.00  0.00    -0.003 C 
ATOM     20  C   UNL     1      52.970  25.720  52.646  1.00  0.00     0.004 C 
ENDBRANCH  18  19
ENDBRANCH  17  18
ENDBRANCH  16  17
ENDBRANCH  15  16
ENDBRANCH  14  15
ENDBRANCH  13  14
ENDBRANCH  12  13
ENDBRANCH   1  12
TORSDOF 16
ENDMDL
MODEL 5
REMARK VINA RESULT:    -2.995      2.368      5.812
REMARK INTER + INTRA:          -8.708
REMARK INTER:                  -6.569
REMARK INTRA:                  -2.138
REMARK UNBOUND:                -2.912
REMARK SMILES CCCCCCCCCCCCCCCCCC(=O)[O-]
REMARK SMILES IDX 10 1 11 2 12 3 13 4 14 5 15 6 16 7 17 8 18 9 19 10 20 11
REMARK SMILES IDX 9 12 8 13 7 14 6 15 5 16 4 17 3 18 2 19 1 20
REMARK H PARENT
REMARK Flexibility Score: inf
ROOT
ATOM      1  C   UNL     1      56.349  29.144  52.344  1.00  0.00     0.000 C 
ENDROOT
BRANCH   1   2
ATOM      2  C   UNL     1      55.058  29.974  52.345  1.00  0.00     0.000 C 
BRANCH   2   3
ATOM      3  C   UNL     1      54.137  29.560  51.190  1.00  0.00     0.000 C 
BRANCH   3   4
ATOM      4  C   UNL     1      54.822  28.526  50.284  1.00  0.00     0.000 C 
BRANCH   4   5
ATOM      5  C   UNL     1      53.920  27.318  49.980  1.00  0.00     0.000 C 
BRANCH   5   6
ATOM      6  C   UNL     1      54.724  26.044  49.670  1.00  0.00     0.000 C 
BRANCH   6   7
ATOM      7  C   UNL     1      56.201  26.146  50.093  1.00  0.00     0.006 C 
BRANCH   7   8
ATOM      8  C   UNL     1      56.486  25.600  51.503  1.00  0.00     0.053 C 
BRANCH   8   9
ATOM      9  C   UNL     1      57.953  25.481  51.788  1.00  0.00     0.041 C 
ATOM     10  O   UNL     1      58.664  24.683  51.124  1.00  0.00    -0.550 OA
ATOM     11  O   UNL     1      58.528  26.224  52.811  1.00  0.00    -0.550 OA
ENDBRANCH   8   9
ENDBRANCH   7   8
ENDBRANCH   6   7
ENDBRANCH   5   6
ENDBRANCH   4   5
ENDBRANCH   3   4
ENDBRANCH   2   3
ENDBRANCH   1   2
BRANCH   1  12
ATOM     12  C   UNL     1      57.618  30.010  52.376  1.00  0.00     0.000 C 
BRANCH  12  13
ATOM     13  C   UNL     1      58.744  29.494  51.454  1.00  0.00    -0.000 C 
BRANCH  13  14
ATOM     14  C   UNL     1      58.251  29.244  50.018  1.00  0.00    -0.000 C 
BRANCH  14  15
ATOM     15  C   UNL     1      59.394  28.854  49.056  1.00  0.00    -0.000 C 
BRANCH  15  16
ATOM     16  C   UNL     1      59.761  27.358  49.103  1.00  0.00    -0.000 C 
BRANCH  16  17
ATOM     17  C   UNL     1      61.067  27.033  49.852  1.00  0.00    -0.000 C 
BRANCH  17  18
ATOM     18  C   UNL     1      62.206  28.056  49.657  1.00  0.00    -0.000 C 
BRANCH  18  19
ATOM     19  C   UNL     1      63.296  27.629  48.658  1.00  0.00    -0.003 C 
ATOM     20  C   UNL     1      64.460  26.894  49.323  1.00  0.00     0.004 C 
ENDBRANCH  18  19
ENDBRANCH  17  18
ENDBRANCH  16  17
ENDBRANCH  15  16
ENDBRANCH  14  15
ENDBRANCH  13  14
ENDBRANCH  12  13
ENDBRANCH   1  12
TORSDOF 16
ENDMDL
MODEL 6
REMARK VINA RESULT:    -2.973     10.380     12.612
REMARK INTER + INTRA:          -8.667
REMARK INTER:                  -5.904
REMARK INTRA:                  -2.763
REMARK UNBOUND:                -2.912
REMARK SMILES CCCCCCCCCCCCCCCCCC(=O)[O-]
REMARK SMILES IDX 10 1 11 2 12 3 13 4 14 5 15 6 16 7 17 8 18 9 19 10 20 11
REMARK SMILES IDX 9 12 8 13 7 14 6 15 5 16 4 17 3 18 2 19 1 20
REMARK H PARENT
REMARK Flexibility Score: inf
ROOT
ATOM      1  C   UNL     1      60.327  31.811  59.813  1.00  0.00     0.000 C 
ENDROOT
BRANCH   1   2
ATOM      2  C   UNL     1      60.801  31.757  61.272  1.00  0.00     0.000 C 
BRANCH   2   3
ATOM      3  C   UNL     1      61.341  30.366  61.624  1.00  0.00     0.000 C 
BRANCH   3   4
ATOM      4  C   UNL     1      62.816  30.439  62.046  1.00  0.00     0.000 C 
BRANCH   4   5
ATOM      5  C   UNL     1      63.708  29.479  61.244  1.00  0.00     0.000 C 
BRANCH   5   6
ATOM      6  C   UNL     1      62.982  28.874  60.029  1.00  0.00     0.000 C 
BRANCH   6   7
ATOM      7  C   UNL     1      62.805  27.348  60.132  1.00  0.00     0.006 C 
BRANCH   7   8
ATOM      8  C   UNL     1      63.070  26.782  61.538  1.00  0.00     0.053 C 
BRANCH   8   9
ATOM      9  C   UNL     1      61.806  26.478  62.283  1.00  0.00     0.041 C 
ATOM     10  O   UNL     1      61.838  25.766  63.321  1.00  0.00    -0.550 OA
ATOM     11  O   UNL     1      60.587  26.952  61.815  1.00  0.00    -0.550 OA
ENDBRANCH   8   9
ENDBRANCH   7   8
ENDBRANCH   6   7
ENDBRANCH   5   6
ENDBRANCH   4   5
ENDBRANCH   3   4
ENDBRANCH   2   3
ENDBRANCH   1   2
BRANCH   1  12
ATOM     12  C   UNL     1      61.419  32.298  58.847  1.00  0.00     0.000 C 
BRANCH  12  13
ATOM     13  C   UNL     1      60.960  33.445  57.920  1.00  0.00    -0.000 C 
BRANCH  13  14
ATOM     14  C   UNL     1      61.505  34.811  58.373  1.00  0.00    -0.000 C 
BRANCH  14  15
ATOM     15  C   UNL     1      60.755  35.374  59.600  1.00  0.00    -0.000 C 
BRANCH  15  16
ATOM     16  C   UNL     1      61.609  35.425  60.881  1.00  0.00    -0.000 C 
BRANCH  16  17
ATOM     17  C   UNL     1      63.122  35.241  60.660  1.00  0.00    -0.000 C 
BRANCH  17  18
ATOM     18  C   UNL     1      63.732  33.984  61.315  1.00  0.00    -0.000 C 
BRANCH  18  19
ATOM     19  C   UNL     1      64.552  33.091  60.368  1.00  0.00    -0.003 C 
ATOM     20  C   UNL     1      64.913  33.786  59.056  1.00  0.00     0.004 C 
ENDBRANCH  18  19
ENDBRANCH  17  18
ENDBRANCH  16  17
ENDBRANCH  15  16
ENDBRANCH  14  15
ENDBRANCH  13  14
ENDBRANCH  12  13
ENDBRANCH   1  12
TORSDOF 16
ENDMDL
MODEL 7
REMARK VINA RESULT:    -2.941      9.459     12.268
REMARK INTER + INTRA:          -8.605
REMARK INTER:                  -5.485
REMARK INTRA:                  -3.120
REMARK UNBOUND:                -2.912
REMARK SMILES CCCCCCCCCCCCCCCCCC(=O)[O-]
REMARK SMILES IDX 10 1 11 2 12 3 13 4 14 5 15 6 16 7 17 8 18 9 19 10 20 11
REMARK SMILES IDX 9 12 8 13 7 14 6 15 5 16 4 17 3 18 2 19 1 20
REMARK H PARENT
REMARK Flexibility Score: inf
ROOT
ATOM      1  C   UNL     1      60.343  32.175  58.897  1.00  0.00     0.000 C 
ENDROOT
BRANCH   1   2
ATOM      2  C   UNL     1      60.424  31.091  59.981  1.00  0.00     0.000 C 
BRANCH   2   3
ATOM      3  C   UNL     1      61.270  31.564  61.169  1.00  0.00     0.000 C 
BRANCH   3   4
ATOM      4  C   UNL     1      61.790  30.369  61.983  1.00  0.00     0.000 C 
BRANCH   4   5
ATOM      5  C   UNL     1      63.321  30.240  61.930  1.00  0.00     0.000 C 
BRANCH   5   6
ATOM      6  C   UNL     1      63.984  31.386  61.145  1.00  0.00     0.000 C 
BRANCH   6   7
ATOM      7  C   UNL     1      64.819  30.893  59.949  1.00  0.00     0.006 C 
BRANCH   7   8
ATOM      8  C   UNL     1      64.038  30.830  58.626  1.00  0.00     0.053 C 
BRANCH   8   9
ATOM      9  C   UNL     1      63.704  29.426  58.221  1.00  0.00     0.041 C 
ATOM     10  O   UNL     1      62.797  28.792  58.822  1.00  0.00    -0.550 OA
ATOM     11  O   UNL     1      64.417  28.803  57.204  1.00  0.00    -0.550 OA
ENDBRANCH   8   9
ENDBRANCH   7   8
ENDBRANCH   6   7
ENDBRANCH   5   6
ENDBRANCH   4   5
ENDBRANCH   3   4
ENDBRANCH   2   3
ENDBRANCH   1   2
BRANCH   1  12
ATOM     12  C   UNL     1      61.405  33.273  59.066  1.00  0.00     0.000 C 
BRANCH  12  13
ATOM     13  C   UNL     1      60.998  34.630  58.454  1.00  0.00    -0.000 C 
BRANCH  13  14
ATOM     14  C   UNL     1      61.135  35.786  59.460  1.00  0.00    -0.000 C 
BRANCH  14  15
ATOM     15  C   UNL     1      61.550  35.304  60.868  1.00  0.00    -0.000 C 
BRANCH  15  16
ATOM     16  C   UNL     1      62.841  35.959  61.393  1.00  0.00    -0.000 C 
BRANCH  16  17
ATOM     17  C   UNL     1      64.120  35.122  61.200  1.00  0.00    -0.000 C 
BRANCH  17  18
ATOM     18  C   UNL     1      64.964  35.492  59.962  1.00  0.00    -0.000 C 
BRANCH  18  19
ATOM     19  C   UNL     1      65.100  34.375  58.913  1.00  0.00    -0.003 C 
ATOM     20  C   UNL     1      64.508  34.754  57.556  1.00  0.00     0.004 C 
ENDBRANCH  18  19
ENDBRANCH  17  18
ENDBRANCH  16  17
ENDBRANCH  15  16
ENDBRANCH  14  15
ENDBRANCH  13  14
ENDBRANCH  12  13
ENDBRANCH   1  12
TORSDOF 16
ENDMDL
MODEL 8
REMARK VINA RESULT:    -2.910     10.057     11.754
REMARK INTER + INTRA:          -8.545
REMARK INTER:                  -5.357
REMARK INTRA:                  -3.188
REMARK UNBOUND:                -2.912
REMARK SMILES CCCCCCCCCCCCCCCCCC(=O)[O-]
REMARK SMILES IDX 10 1 11 2 12 3 13 4 14 5 15 6 16 7 17 8 18 9 19 10 20 11
REMARK SMILES IDX 9 12 8 13 7 14 6 15 5 16 4 17 3 18 2 19 1 20
REMARK H PARENT
REMARK Flexibility Score: inf
ROOT
ATOM      1  C   UNL     1      64.256  31.244  61.292  1.00  0.00     0.000 C 
ENDROOT
BRANCH   1   2
ATOM      2  C   UNL     1      64.282  31.328  59.759  1.00  0.00     0.000 C 
BRANCH   2   3
ATOM      3  C   UNL     1      64.751  30.005  59.144  1.00  0.00     0.000 C 
BRANCH   3   4
ATOM      4  C   UNL     1      63.683  29.428  58.202  1.00  0.00     0.000 C 
BRANCH   4   5
ATOM      5  C   UNL     1      62.982  28.193  58.790  1.00  0.00     0.000 C 
BRANCH   5   6
ATOM      6  C   UNL     1      63.916  27.347  59.673  1.00  0.00     0.000 C 
BRANCH   6   7
ATOM      7  C   UNL     1      63.231  26.827  60.951  1.00  0.00     0.006 C 
BRANCH   7   8
ATOM      8  C   UNL     1      61.726  26.554  60.785  1.00  0.00     0.053 C 
BRANCH   8   9
ATOM      9  C   UNL     1      61.022  26.398  62.098  1.00  0.00     0.041 C 
ATOM     10  O   UNL     1      59.770  26.515  62.164  1.00  0.00    -0.550 OA
ATOM     11  O   UNL     1      61.750  26.158  63.257  1.00  0.00    -0.550 OA
ENDBRANCH   8   9
ENDBRANCH   7   8
ENDBRANCH   6   7
ENDBRANCH   5   6
ENDBRANCH   4   5
ENDBRANCH   3   4
ENDBRANCH   2   3
ENDBRANCH   1   2
BRANCH   1  12
ATOM     12  C   UNL     1      63.158  30.307  61.822  1.00  0.00     0.000 C 
BRANCH  12  13
ATOM     13  C   UNL     1      61.759  30.958  61.873  1.00  0.00    -0.000 C 
BRANCH  13  14
ATOM     14  C   UNL     1      60.675  30.052  61.263  1.00  0.00    -0.000 C 
BRANCH  14  15
ATOM     15  C   UNL     1      60.353  30.415  59.796  1.00  0.00    -0.000 C 
BRANCH  15  16
ATOM     16  C   UNL     1      60.170  31.927  59.557  1.00  0.00    -0.000 C 
BRANCH  16  17
ATOM     17  C   UNL     1      61.182  32.557  58.583  1.00  0.00    -0.000 C 
BRANCH  17  18
ATOM     18  C   UNL     1      61.750  33.923  59.022  1.00  0.00    -0.000 C 
BRANCH  18  19
ATOM     19  C   UNL     1      61.604  34.235  60.521  1.00  0.00    -0.003 C 
ATOM     20  C   UNL     1      62.807  34.983  61.095  1.00  0.00     0.004 C 
ENDBRANCH  18  19
ENDBRANCH  17  18
ENDBRANCH  16  17
ENDBRANCH  15  16
ENDBRANCH  14  15
ENDBRANCH  13  14
ENDBRANCH  12  13
ENDBRANCH   1  12
TORSDOF 16
ENDMDL
MODEL 9
REMARK VINA RESULT:    -2.888      3.694      6.573
REMARK INTER + INTRA:          -8.502
REMARK INTER:                  -5.441
REMARK INTRA:                  -3.061
REMARK UNBOUND:                -2.912
REMARK SMILES CCCCCCCCCCCCCCCCCC(=O)[O-]
REMARK SMILES IDX 10 1 11 2 12 3 13 4 14 5 15 6 16 7 17 8 18 9 19 10 20 11
REMARK SMILES IDX 9 12 8 13 7 14 6 15 5 16 4 17 3 18 2 19 1 20
REMARK H PARENT
REMARK Flexibility Score: inf
ROOT
ATOM      1  C   UNL     1      57.489  28.373  53.411  1.00  0.00     0.000 C 
ENDROOT
BRANCH   1   2
ATOM      2  C   UNL     1      58.143  27.048  52.997  1.00  0.00     0.000 C 
BRANCH   2   3
ATOM      3  C   UNL     1      57.100  26.067  52.449  1.00  0.00     0.000 C 
BRANCH   3   4
ATOM      4  C   UNL     1      57.496  25.564  51.053  1.00  0.00     0.000 C 
BRANCH   4   5
ATOM      5  C   UNL     1      56.486  25.974  49.969  1.00  0.00     0.000 C 
BRANCH   5   6
ATOM      6  C   UNL     1      55.152  26.462  50.559  1.00  0.00     0.000 C 
BRANCH   6   7
ATOM      7  C   UNL     1      54.742  27.857  50.050  1.00  0.00     0.006 C 
BRANCH   7   8
ATOM      8  C   UNL     1      53.381  28.340  50.581  1.00  0.00     0.053 C 
BRANCH   8   9
ATOM      9  C   UNL     1      53.515  29.446  51.584  1.00  0.00     0.041 C 
ATOM     10  O   UNL     1      53.551  30.645  51.203  1.00  0.00    -0.550 OA
ATOM     11  O   UNL     1      53.635  29.152  52.936  1.00  0.00    -0.550 OA
ENDBRANCH   8   9
ENDBRANCH   7   8
ENDBRANCH   6   7
ENDBRANCH   5   6
ENDBRANCH   4   5
ENDBRANCH   3   4
ENDBRANCH   2   3
ENDBRANCH   1   2
BRANCH   1  12
ATOM     12  C   UNL     1      57.228  29.310  52.221  1.00  0.00     0.000 C 
BRANCH  12  13
ATOM     13  C   UNL     1      58.464  29.532  51.323  1.00  0.00    -0.000 C 
BRANCH  13  14
ATOM     14  C   UNL     1      58.168  29.231  49.843  1.00  0.00    -0.000 C 
BRANCH  14  15
ATOM     15  C   UNL     1      59.272  28.380  49.177  1.00  0.00    -0.000 C 
BRANCH  15  16
ATOM     16  C   UNL     1      60.339  27.867  50.163  1.00  0.00    -0.000 C 
BRANCH  16  17
ATOM     17  C   UNL     1      60.937  26.490  49.815  1.00  0.00    -0.000 C 
BRANCH  17  18
ATOM     18  C   UNL     1      61.601  25.748  50.993  1.00  0.00    -0.000 C 
BRANCH  18  19
ATOM     19  C   UNL     1      61.063  24.331  51.255  1.00  0.00    -0.003 C 
ATOM     20  C   UNL     1      60.516  23.659  49.996  1.00  0.00     0.004 C 
ENDBRANCH  18  19
ENDBRANCH  17  18
ENDBRANCH  16  17
ENDBRANCH  15  16
ENDBRANCH  14  15
ENDBRANCH  13  14
ENDBRANCH  12  13
ENDBRANCH   1  12
TORSDOF 16
ENDMDL
