MODEL 1
REMARK VINA RESULT:     3.685      0.000      0.000
REMARK INTER + INTRA:           4.373
REMARK INTER:                   4.331
REMARK INTRA:                   0.042
REMARK UNBOUND:                 0.042
REMARK SMILES O=c1c(O)c(-c2ccc(O)cc2)oc2cc(O)cc(O)c12
REMARK SMILES IDX 5 1 3 2 2 3 1 4 21 5 19 6 18 7 16 8 15 9 14 10 13 11 6 12
REMARK SMILES IDX 7 13 8 14 9 15 12 16 11 17 10 18 4 20 20 22 17 24
REMARK H PARENT 10 19 4 21 20 23 17 25
REMARK Flexibility Score: inf
ROOT
ATOM      1  C   UNL     1     -21.583 -15.808 -13.937  1.00  0.00     0.180 A 
ATOM      2  C   UNL     1     -22.228 -15.037 -14.919  1.00  0.00     0.208 A 
ATOM      3  C   UNL     1     -23.498 -15.431 -15.369  1.00  0.00     0.238 A 
ATOM      4  O   UNL     1     -24.094 -14.707 -16.208  1.00  0.00    -0.285 OA
ATOM      5  C   UNL     1     -24.100 -16.601 -14.844  1.00  0.00     0.111 A 
ATOM      6  C   UNL     1     -25.366 -17.115 -15.257  1.00  0.00     0.134 A 
ATOM      7  C   UNL     1     -25.923 -18.204 -14.577  1.00  0.00     0.093 A 
ATOM      8  C   UNL     1     -25.233 -18.838 -13.543  1.00  0.00     0.123 A 
ATOM      9  C   UNL     1     -23.968 -18.380 -13.172  1.00  0.00     0.094 A 
ATOM     10  C   UNL     1     -23.402 -17.272 -13.807  1.00  0.00     0.146 A 
ATOM     11  O   UNL     1     -22.201 -16.862 -13.416  1.00  0.00    -0.452 OA
ENDROOT
BRANCH   1  12
ATOM     12  C   UNL     1     -20.233 -15.471 -13.430  1.00  0.00     0.021 A 
ATOM     13  C   UNL     1     -19.924 -14.177 -12.975  1.00  0.00     0.016 A 
ATOM     14  C   UNL     1     -18.634 -13.875 -12.523  1.00  0.00     0.047 A 
ATOM     15  C   UNL     1     -17.638 -14.856 -12.531  1.00  0.00     0.115 A 
ATOM     16  C   UNL     1     -19.221 -16.445 -13.454  1.00  0.00     0.016 A 
ATOM     17  C   UNL     1     -17.934 -16.142 -13.002  1.00  0.00     0.047 A 
BRANCH  15  18
ATOM     18  O   UNL     1     -16.359 -14.542 -12.077  1.00  0.00    -0.508 OA
ATOM     19  H   UNL     1     -15.753 -13.914 -12.593  1.00  0.00     0.293 HD
ENDBRANCH  15  18
ENDBRANCH   1  12
BRANCH   2  20
ATOM     20  O   UNL     1     -21.624 -13.875 -15.407  1.00  0.00    -0.502 OA
ATOM     21  H   UNL     1     -20.917 -13.369 -14.886  1.00  0.00     0.293 HD
ENDBRANCH   2  20
BRANCH   6  22
ATOM     22  O   UNL     1     -26.097 -16.614 -16.337  1.00  0.00    -0.507 OA
ATOM     23  H   UNL     1     -26.948 -17.023 -16.695  1.00  0.00     0.293 HD
ENDBRANCH   6  22
BRANCH   8  24
ATOM     24  O   UNL     1     -25.811 -19.930 -12.900  1.00  0.00    -0.508 OA
ATOM     25  H   UNL     1     -26.273 -19.832 -12.002  1.00  0.00     0.293 HD
ENDBRANCH   8  24
TORSDOF 5
ENDMDL
MODEL 2
REMARK VINA RESULT:     6.304      1.905      6.813
REMARK INTER + INTRA:           7.452
REMARK INTER:                   7.689
REMARK INTRA:                  -0.238
REMARK UNBOUND:                 0.042
REMARK SMILES O=c1c(O)c(-c2ccc(O)cc2)oc2cc(O)cc(O)c12
REMARK SMILES IDX 5 1 3 2 2 3 1 4 21 5 19 6 18 7 16 8 15 9 14 10 13 11 6 12
REMARK SMILES IDX 7 13 8 14 9 15 12 16 11 17 10 18 4 20 20 22 17 24
REMARK H PARENT 10 19 4 21 20 23 17 25
REMARK Flexibility Score: inf
ROOT
ATOM      1  C   UNL     1     -22.212 -16.774 -13.308  1.00  0.00     0.180 A 
ATOM      2  C   UNL     1     -22.260 -15.604 -12.531  1.00  0.00     0.208 A 
ATOM      3  C   UNL     1     -21.060 -14.951 -12.208  1.00  0.00     0.238 A 
ATOM      4  O   UNL     1     -21.113 -13.875 -11.558  1.00  0.00    -0.285 OA
ATOM      5  C   UNL     1     -19.826 -15.485 -12.652  1.00  0.00     0.111 A 
ATOM      6  C   UNL     1     -18.547 -14.929 -12.350  1.00  0.00     0.134 A 
ATOM      7  C   UNL     1     -17.402 -15.464 -12.951  1.00  0.00     0.093 A 
ATOM      8  C   UNL     1     -17.481 -16.574 -13.790  1.00  0.00     0.123 A 
ATOM      9  C   UNL     1     -18.720 -17.163 -14.045  1.00  0.00     0.094 A 
ATOM     10  C   UNL     1     -19.885 -16.629 -13.489  1.00  0.00     0.146 A 
ATOM     11  O   UNL     1     -21.045 -17.213 -13.765  1.00  0.00    -0.452 OA
ENDROOT
BRANCH   1  12
ATOM     12  C   UNL     1     -23.432 -17.532 -13.669  1.00  0.00     0.021 A 
ATOM     13  C   UNL     1     -24.113 -18.317 -12.721  1.00  0.00     0.016 A 
ATOM     14  C   UNL     1     -25.250 -19.045 -13.090  1.00  0.00     0.047 A 
ATOM     15  C   UNL     1     -25.712 -19.006 -14.409  1.00  0.00     0.115 A 
ATOM     16  C   UNL     1     -23.890 -17.516 -14.996  1.00  0.00     0.016 A 
ATOM     17  C   UNL     1     -25.027 -18.242 -15.363  1.00  0.00     0.047 A 
BRANCH  15  18
ATOM     18  O   UNL     1     -26.846 -19.734 -14.763  1.00  0.00    -0.508 OA
ATOM     19  H   UNL     1     -27.060 -19.943 -15.731  1.00  0.00     0.293 HD
ENDBRANCH  15  18
ENDBRANCH   1  12
BRANCH   2  20
ATOM     20  O   UNL     1     -23.491 -15.083 -12.121  1.00  0.00    -0.502 OA
ATOM     21  H   UNL     1     -23.673 -14.809 -11.163  1.00  0.00     0.293 HD
ENDBRANCH   2  20
BRANCH   6  22
ATOM     22  O   UNL     1     -18.346 -13.876 -11.451  1.00  0.00    -0.507 OA
ATOM     23  H   UNL     1     -18.480 -13.939 -10.453  1.00  0.00     0.293 HD
ENDBRANCH   6  22
BRANCH   8  24
ATOM     24  O   UNL     1     -16.318 -17.090 -14.358  1.00  0.00    -0.508 OA
ATOM     25  H   UNL     1     -16.174 -18.089 -14.455  1.00  0.00     0.293 HD
ENDBRANCH   8  24
TORSDOF 5
ENDMDL
