MODEL 1
REMARK VINA RESULT:    -4.539      0.000      0.000
REMARK INTER + INTRA:         -12.774
REMARK INTER:                  -9.845
REMARK INTRA:                  -2.928
REMARK UNBOUND:                -2.928
REMARK SMILES CCCCCCCCCCCCCCCCCCCCCC(=O)[O-]
REMARK SMILES IDX 12 1 11 2 10 3 9 4 8 5 7 6 6 7 5 8 4 9 3 10 2 11 1 12 13 13
REMARK SMILES IDX 14 14 15 15 16 16 17 17 18 18 19 19 20 20 21 21 22 22 23 23
REMARK SMILES IDX 24 24
REMARK H PARENT
REMARK Flexibility Score: inf
ROOT
ATOM      1  C   UNL     1       8.456  14.602  22.253  1.00  0.00     0.000 C 
ENDROOT
BRANCH   1   2
ATOM      2  C   UNL     1       9.762  13.904  22.683  1.00  0.00     0.000 C 
BRANCH   2   3
ATOM      3  C   UNL     1      11.031  14.770  22.567  1.00  0.00     0.000 C 
BRANCH   3   4
ATOM      4  C   UNL     1      11.943  14.763  23.810  1.00  0.00    -0.000 C 
BRANCH   4   5
ATOM      5  C   UNL     1      11.572  15.792  24.893  1.00  0.00    -0.000 C 
BRANCH   5   6
ATOM      6  C   UNL     1      12.781  16.596  25.394  1.00  0.00    -0.000 C 
BRANCH   6   7
ATOM      7  C   UNL     1      12.367  18.022  25.786  1.00  0.00    -0.000 C 
BRANCH   7   8
ATOM      8  C   UNL     1      11.308  18.614  24.842  1.00  0.00    -0.000 C 
BRANCH   8   9
ATOM      9  C   UNL     1      11.931  19.338  23.634  1.00  0.00    -0.000 C 
BRANCH   9  10
ATOM     10  C   UNL     1      11.898  18.486  22.356  1.00  0.00    -0.000 C 
BRANCH  10  11
ATOM     11  C   UNL     1      13.245  18.471  21.618  1.00  0.00    -0.003 C 
ATOM     12  C   UNL     1      13.771  17.046  21.464  1.00  0.00     0.004 C 
ENDBRANCH  10  11
ENDBRANCH   9  10
ENDBRANCH   8   9
ENDBRANCH   7   8
ENDBRANCH   6   7
ENDBRANCH   5   6
ENDBRANCH   4   5
ENDBRANCH   3   4
ENDBRANCH   2   3
ENDBRANCH   1   2
BRANCH   1  13
ATOM     13  C   UNL     1       7.279  13.652  21.956  1.00  0.00     0.000 C 
BRANCH  13  14
ATOM     14  C   UNL     1       6.844  12.765  23.139  1.00  0.00     0.000 C 
BRANCH  14  15
ATOM     15  C   UNL     1       6.045  11.504  22.752  1.00  0.00     0.000 C 
BRANCH  15  16
ATOM     16  C   UNL     1       6.878  10.216  22.624  1.00  0.00     0.000 C 
BRANCH  16  17
ATOM     17  C   UNL     1       8.334  10.400  23.087  1.00  0.00     0.000 C 
BRANCH  17  18
ATOM     18  C   UNL     1       9.340  10.276  21.931  1.00  0.00     0.000 C 
BRANCH  18  19
ATOM     19  C   UNL     1       8.654  10.061  20.570  1.00  0.00     0.000 C 
BRANCH  19  20
ATOM     20  C   UNL     1       8.708  11.312  19.673  1.00  0.00     0.006 C 
BRANCH  20  21
ATOM     21  C   UNL     1      10.105  11.940  19.545  1.00  0.00     0.053 C 
BRANCH  21  22
ATOM     22  C   UNL     1      10.706  11.706  18.193  1.00  0.00     0.041 C 
ATOM     23  O   UNL     1      10.416  12.467  17.231  1.00  0.00    -0.550 OA
ATOM     24  O   UNL     1      11.611  10.671  18.003  1.00  0.00    -0.550 OA
ENDBRANCH  21  22
ENDBRANCH  20  21
ENDBRANCH  19  20
ENDBRANCH  18  19
ENDBRANCH  17  18
ENDBRANCH  16  17
ENDBRANCH  15  16
ENDBRANCH  14  15
ENDBRANCH  13  14
ENDBRANCH   1  13
TORSDOF 20
ENDMDL
MODEL 2
REMARK VINA RESULT:    -4.525      2.339      7.359
REMARK INTER + INTRA:         -12.743
REMARK INTER:                  -9.984
REMARK INTRA:                  -2.759
REMARK UNBOUND:                -2.928
REMARK SMILES CCCCCCCCCCCCCCCCCCCCCC(=O)[O-]
REMARK SMILES IDX 12 1 11 2 10 3 9 4 8 5 7 6 6 7 5 8 4 9 3 10 2 11 1 12 13 13
REMARK SMILES IDX 14 14 15 15 16 16 17 17 18 18 19 19 20 20 21 21 22 22 23 23
REMARK SMILES IDX 24 24
REMARK H PARENT
REMARK Flexibility Score: inf
ROOT
ATOM      1  C   UNL     1       8.190  13.819  21.938  1.00  0.00     0.000 C 
ENDROOT
BRANCH   1   2
ATOM      2  C   UNL     1       7.115  13.635  23.027  1.00  0.00     0.000 C 
BRANCH   2   3
ATOM      3  C   UNL     1       6.494  12.226  23.097  1.00  0.00     0.000 C 
BRANCH   3   4
ATOM      4  C   UNL     1       6.620  11.392  21.806  1.00  0.00    -0.000 C 
BRANCH   4   5
ATOM      5  C   UNL     1       7.514  10.144  21.924  1.00  0.00    -0.000 C 
BRANCH   5   6
ATOM      6  C   UNL     1       8.486  10.214  23.111  1.00  0.00    -0.000 C 
BRANCH   6   7
ATOM      7  C   UNL     1       9.901  10.583  22.640  1.00  0.00    -0.000 C 
BRANCH   7   8
ATOM      8  C   UNL     1      10.160  10.195  21.174  1.00  0.00    -0.000 C 
BRANCH   8   9
ATOM      9  C   UNL     1      10.668  11.378  20.331  1.00  0.00    -0.000 C 
BRANCH   9  10
ATOM     10  C   UNL     1       9.645  11.833  19.278  1.00  0.00    -0.000 C 
BRANCH  10  11
ATOM     11  C   UNL     1      10.257  11.966  17.875  1.00  0.00    -0.003 C 
ATOM     12  C   UNL     1      11.781  11.911  17.934  1.00  0.00     0.004 C 
ENDBRANCH  10  11
ENDBRANCH   9  10
ENDBRANCH   8   9
ENDBRANCH   7   8
ENDBRANCH   6   7
ENDBRANCH   5   6
ENDBRANCH   4   5
ENDBRANCH   3   4
ENDBRANCH   2   3
ENDBRANCH   1   2
BRANCH   1  13
ATOM     13  C   UNL     1       9.307  14.821  22.289  1.00  0.00     0.000 C 
BRANCH  13  14
ATOM     14  C   UNL     1      10.723  14.216  22.368  1.00  0.00     0.000 C 
BRANCH  14  15
ATOM     15  C   UNL     1      11.305  14.097  23.790  1.00  0.00     0.000 C 
BRANCH  15  16
ATOM     16  C   UNL     1      11.319  15.404  24.603  1.00  0.00     0.000 C 
BRANCH  16  17
ATOM     17  C   UNL     1      12.742  15.885  24.932  1.00  0.00     0.000 C 
BRANCH  17  18
ATOM     18  C   UNL     1      12.751  17.175  25.770  1.00  0.00     0.000 C 
BRANCH  18  19
ATOM     19  C   UNL     1      13.108  18.418  24.935  1.00  0.00     0.000 C 
BRANCH  19  20
ATOM     20  C   UNL     1      14.308  18.181  24.000  1.00  0.00     0.006 C 
BRANCH  20  21
ATOM     21  C   UNL     1      14.115  18.715  22.571  1.00  0.00     0.053 C 
BRANCH  21  22
ATOM     22  C   UNL     1      12.910  18.123  21.907  1.00  0.00     0.041 C 
ATOM     23  O   UNL     1      12.904  16.909  21.571  1.00  0.00    -0.550 OA
ATOM     24  O   UNL     1      11.781  18.902  21.690  1.00  0.00    -0.550 OA
ENDBRANCH  21  22
ENDBRANCH  20  21
ENDBRANCH  19  20
ENDBRANCH  18  19
ENDBRANCH  17  18
ENDBRANCH  16  17
ENDBRANCH  15  16
ENDBRANCH  14  15
ENDBRANCH  13  14
ENDBRANCH   1  13
TORSDOF 20
ENDMDL
MODEL 3
REMARK VINA RESULT:    -4.433      2.847      6.567
REMARK INTER + INTRA:         -12.544
REMARK INTER:                  -9.106
REMARK INTRA:                  -3.438
REMARK UNBOUND:                -2.928
REMARK SMILES CCCCCCCCCCCCCCCCCCCCCC(=O)[O-]
REMARK SMILES IDX 12 1 11 2 10 3 9 4 8 5 7 6 6 7 5 8 4 9 3 10 2 11 1 12 13 13
REMARK SMILES IDX 14 14 15 15 16 16 17 17 18 18 19 19 20 20 21 21 22 22 23 23
REMARK SMILES IDX 24 24
REMARK H PARENT
REMARK Flexibility Score: inf
ROOT
ATOM      1  C   UNL     1      12.346  17.889  21.423  1.00  0.00     0.000 C 
ENDROOT
BRANCH   1   2
ATOM      2  C   UNL     1      13.790  17.365  21.555  1.00  0.00     0.000 C 
BRANCH   2   3
ATOM      3  C   UNL     1      14.753  17.829  20.444  1.00  0.00     0.000 C 
BRANCH   3   4
ATOM      4  C   UNL     1      15.475  19.163  20.721  1.00  0.00    -0.000 C 
BRANCH   4   5
ATOM      5  C   UNL     1      15.157  20.292  19.725  1.00  0.00    -0.000 C 
BRANCH   5   6
ATOM      6  C   UNL     1      13.980  21.172  20.174  1.00  0.00    -0.000 C 
BRANCH   6   7
ATOM      7  C   UNL     1      12.708  20.831  19.383  1.00  0.00    -0.000 C 
BRANCH   7   8
ATOM      8  C   UNL     1      11.424  21.279  20.101  1.00  0.00    -0.000 C 
BRANCH   8   9
ATOM      9  C   UNL     1      11.618  22.578  20.903  1.00  0.00    -0.000 C 
BRANCH   9  10
ATOM     10  C   UNL     1      11.285  22.406  22.393  1.00  0.00    -0.000 C 
BRANCH  10  11
ATOM     11  C   UNL     1      10.303  23.468  22.908  1.00  0.00    -0.003 C 
ATOM     12  C   UNL     1       9.397  23.968  21.785  1.00  0.00     0.004 C 
ENDBRANCH  10  11
ENDBRANCH   9  10
ENDBRANCH   8   9
ENDBRANCH   7   8
ENDBRANCH   6   7
ENDBRANCH   5   6
ENDBRANCH   4   5
ENDBRANCH   3   4
ENDBRANCH   2   3
ENDBRANCH   1   2
BRANCH   1  13
ATOM     13  C   UNL     1      11.818  18.655  22.652  1.00  0.00     0.000 C 
BRANCH  13  14
ATOM     14  C   UNL     1      12.904  19.325  23.517  1.00  0.00     0.000 C 
BRANCH  14  15
ATOM     15  C   UNL     1      12.979  18.829  24.974  1.00  0.00     0.000 C 
BRANCH  15  16
ATOM     16  C   UNL     1      12.014  17.681  25.324  1.00  0.00     0.000 C 
BRANCH  16  17
ATOM     17  C   UNL     1      12.711  16.311  25.371  1.00  0.00     0.000 C 
BRANCH  17  18
ATOM     18  C   UNL     1      11.833  15.183  24.804  1.00  0.00     0.000 C 
BRANCH  18  19
ATOM     19  C   UNL     1      12.503  14.448  23.628  1.00  0.00     0.000 C 
BRANCH  19  20
ATOM     20  C   UNL     1      11.622  14.422  22.365  1.00  0.00     0.006 C 
BRANCH  20  21
ATOM     21  C   UNL     1      10.215  15.010  22.560  1.00  0.00     0.053 C 
BRANCH  21  22
ATOM     22  C   UNL     1       9.146  14.098  22.043  1.00  0.00     0.041 C 
ATOM     23  O   UNL     1       7.932  14.404  22.177  1.00  0.00    -0.550 OA
ATOM     24  O   UNL     1       9.491  12.926  21.381  1.00  0.00    -0.550 OA
ENDBRANCH  21  22
ENDBRANCH  20  21
ENDBRANCH  19  20
ENDBRANCH  18  19
ENDBRANCH  17  18
ENDBRANCH  16  17
ENDBRANCH  15  16
ENDBRANCH  14  15
ENDBRANCH  13  14
ENDBRANCH   1  13
TORSDOF 20
ENDMDL
MODEL 4
REMARK VINA RESULT:    -4.424      2.930      6.464
REMARK INTER + INTRA:         -12.524
REMARK INTER:                  -9.484
REMARK INTRA:                  -3.040
REMARK UNBOUND:                -2.928
REMARK SMILES CCCCCCCCCCCCCCCCCCCCCC(=O)[O-]
REMARK SMILES IDX 12 1 11 2 10 3 9 4 8 5 7 6 6 7 5 8 4 9 3 10 2 11 1 12 13 13
REMARK SMILES IDX 14 14 15 15 16 16 17 17 18 18 19 19 20 20 21 21 22 22 23 23
REMARK SMILES IDX 24 24
REMARK H PARENT
REMARK Flexibility Score: inf
ROOT
ATOM      1  C   UNL     1      12.054  20.699  23.520  1.00  0.00     0.000 C 
ENDROOT
BRANCH   1   2
ATOM      2  C   UNL     1      12.111  20.388  22.011  1.00  0.00     0.000 C 
BRANCH   2   3
ATOM      3  C   UNL     1      11.690  18.955  21.627  1.00  0.00     0.000 C 
BRANCH   3   4
ATOM      4  C   UNL     1      12.358  18.397  20.355  1.00  0.00    -0.000 C 
BRANCH   4   5
ATOM      5  C   UNL     1      13.511  17.409  20.607  1.00  0.00    -0.000 C 
BRANCH   5   6
ATOM      6  C   UNL     1      14.823  18.107  20.996  1.00  0.00    -0.000 C 
BRANCH   6   7
ATOM      7  C   UNL     1      15.421  18.857  19.797  1.00  0.00    -0.000 C 
BRANCH   7   8
ATOM      8  C   UNL     1      15.374  20.385  19.968  1.00  0.00    -0.000 C 
BRANCH   8   9
ATOM      9  C   UNL     1      15.580  21.135  18.640  1.00  0.00    -0.000 C 
BRANCH   9  10
ATOM     10  C   UNL     1      14.651  22.351  18.500  1.00  0.00    -0.000 C 
BRANCH  10  11
ATOM     11  C   UNL     1      13.204  22.042  18.911  1.00  0.00    -0.003 C 
ATOM     12  C   UNL     1      12.505  21.187  17.857  1.00  0.00     0.004 C 
ENDBRANCH  10  11
ENDBRANCH   9  10
ENDBRANCH   8   9
ENDBRANCH   7   8
ENDBRANCH   6   7
ENDBRANCH   5   6
ENDBRANCH   4   5
ENDBRANCH   3   4
ENDBRANCH   2   3
ENDBRANCH   1   2
BRANCH   1  13
ATOM     13  C   UNL     1      11.512  19.556  24.399  1.00  0.00     0.000 C 
BRANCH  13  14
ATOM     14  C   UNL     1      12.563  18.867  25.292  1.00  0.00     0.000 C 
BRANCH  14  15
ATOM     15  C   UNL     1      13.673  18.113  24.534  1.00  0.00     0.000 C 
BRANCH  15  16
ATOM     16  C   UNL     1      13.391  16.621  24.277  1.00  0.00     0.000 C 
BRANCH  16  17
ATOM     17  C   UNL     1      12.146  16.113  25.024  1.00  0.00     0.000 C 
BRANCH  17  18
ATOM     18  C   UNL     1      11.395  15.021  24.245  1.00  0.00     0.000 C 
BRANCH  18  19
ATOM     19  C   UNL     1      11.172  15.395  22.768  1.00  0.00     0.000 C 
BRANCH  19  20
ATOM     20  C   UNL     1       9.755  15.051  22.275  1.00  0.00     0.006 C 
BRANCH  20  21
ATOM     21  C   UNL     1       9.403  13.556  22.349  1.00  0.00     0.053 C 
BRANCH  21  22
ATOM     22  C   UNL     1       7.929  13.318  22.233  1.00  0.00     0.041 C 
ATOM     23  O   UNL     1       7.452  12.792  21.193  1.00  0.00    -0.550 OA
ATOM     24  O   UNL     1       7.086  13.644  23.288  1.00  0.00    -0.550 OA
ENDBRANCH  21  22
ENDBRANCH  20  21
ENDBRANCH  19  20
ENDBRANCH  18  19
ENDBRANCH  17  18
ENDBRANCH  16  17
ENDBRANCH  15  16
ENDBRANCH  14  15
ENDBRANCH  13  14
ENDBRANCH   1  13
TORSDOF 20
ENDMDL
MODEL 5
REMARK VINA RESULT:    -4.404      2.324      7.472
REMARK INTER + INTRA:         -12.481
REMARK INTER:                  -9.813
REMARK INTRA:                  -2.668
REMARK UNBOUND:                -2.928
REMARK SMILES CCCCCCCCCCCCCCCCCCCCCC(=O)[O-]
REMARK SMILES IDX 12 1 11 2 10 3 9 4 8 5 7 6 6 7 5 8 4 9 3 10 2 11 1 12 13 13
REMARK SMILES IDX 14 14 15 15 16 16 17 17 18 18 19 19 20 20 21 21 22 22 23 23
REMARK SMILES IDX 24 24
REMARK H PARENT
REMARK Flexibility Score: inf
ROOT
ATOM      1  C   UNL     1       9.374  13.655  22.617  1.00  0.00     0.000 C 
ENDROOT
BRANCH   1   2
ATOM      2  C   UNL     1       7.896  13.846  22.225  1.00  0.00     0.000 C 
BRANCH   2   3
ATOM      3  C   UNL     1       6.878  13.433  23.308  1.00  0.00     0.000 C 
BRANCH   3   4
ATOM      4  C   UNL     1       6.145  12.104  23.042  1.00  0.00    -0.000 C 
BRANCH   4   5
ATOM      5  C   UNL     1       6.515  11.411  21.718  1.00  0.00    -0.000 C 
BRANCH   5   6
ATOM      6  C   UNL     1       7.318  10.118  21.924  1.00  0.00    -0.000 C 
BRANCH   6   7
ATOM      7  C   UNL     1       8.713  10.232  21.291  1.00  0.00    -0.000 C 
BRANCH   7   8
ATOM      8  C   UNL     1       8.663  10.665  19.816  1.00  0.00    -0.000 C 
BRANCH   8   9
ATOM      9  C   UNL     1       9.623  11.829  19.510  1.00  0.00    -0.000 C 
BRANCH   9  10
ATOM     10  C   UNL     1      10.927  11.358  18.847  1.00  0.00    -0.000 C 
BRANCH  10  11
ATOM     11  C   UNL     1      12.180  11.897  19.554  1.00  0.00    -0.003 C 
ATOM     12  C   UNL     1      12.097  11.673  21.062  1.00  0.00     0.004 C 
ENDBRANCH  10  11
ENDBRANCH   9  10
ENDBRANCH   8   9
ENDBRANCH   7   8
ENDBRANCH   6   7
ENDBRANCH   5   6
ENDBRANCH   4   5
ENDBRANCH   3   4
ENDBRANCH   2   3
ENDBRANCH   1   2
BRANCH   1  13
ATOM     13  C   UNL     1      10.311  14.806  22.198  1.00  0.00     0.000 C 
BRANCH  13  14
ATOM     14  C   UNL     1      10.724  15.757  23.339  1.00  0.00     0.000 C 
BRANCH  14  15
ATOM     15  C   UNL     1      11.595  15.120  24.439  1.00  0.00     0.000 C 
BRANCH  15  16
ATOM     16  C   UNL     1      12.522  16.096  25.187  1.00  0.00     0.000 C 
BRANCH  16  17
ATOM     17  C   UNL     1      12.075  17.562  25.051  1.00  0.00     0.000 C 
BRANCH  17  18
ATOM     18  C   UNL     1      13.262  18.537  24.985  1.00  0.00     0.000 C 
BRANCH  18  19
ATOM     19  C   UNL     1      14.378  18.045  24.046  1.00  0.00     0.000 C 
BRANCH  19  20
ATOM     20  C   UNL     1      14.159  18.477  22.584  1.00  0.00     0.006 C 
BRANCH  20  21
ATOM     21  C   UNL     1      13.467  17.420  21.708  1.00  0.00     0.053 C 
BRANCH  21  22
ATOM     22  C   UNL     1      12.617  18.041  20.643  1.00  0.00     0.041 C 
ATOM     23  O   UNL     1      11.439  18.403  20.903  1.00  0.00    -0.550 OA
ATOM     24  O   UNL     1      13.136  18.251  19.372  1.00  0.00    -0.550 OA
ENDBRANCH  21  22
ENDBRANCH  20  21
ENDBRANCH  19  20
ENDBRANCH  18  19
ENDBRANCH  17  18
ENDBRANCH  16  17
ENDBRANCH  15  16
ENDBRANCH  14  15
ENDBRANCH  13  14
ENDBRANCH   1  13
TORSDOF 20
ENDMDL
MODEL 6
REMARK VINA RESULT:    -4.372      3.265      7.776
REMARK INTER + INTRA:         -12.412
REMARK INTER:                  -9.455
REMARK INTRA:                  -2.957
REMARK UNBOUND:                -2.928
REMARK SMILES CCCCCCCCCCCCCCCCCCCCCC(=O)[O-]
REMARK SMILES IDX 12 1 11 2 10 3 9 4 8 5 7 6 6 7 5 8 4 9 3 10 2 11 1 12 13 13
REMARK SMILES IDX 14 14 15 15 16 16 17 17 18 18 19 19 20 20 21 21 22 22 23 23
REMARK SMILES IDX 24 24
REMARK H PARENT
REMARK Flexibility Score: inf
ROOT
ATOM      1  C   UNL     1       9.090  13.777  21.882  1.00  0.00     0.000 C 
ENDROOT
BRANCH   1   2
ATOM      2  C   UNL     1       7.758  13.960  22.636  1.00  0.00     0.000 C 
BRANCH   2   3
ATOM      3  C   UNL     1       6.908  12.681  22.774  1.00  0.00     0.000 C 
BRANCH   3   4
ATOM      4  C   UNL     1       6.921  11.752  21.544  1.00  0.00    -0.000 C 
BRANCH   4   5
ATOM      5  C   UNL     1       7.528  10.359  21.788  1.00  0.00    -0.000 C 
BRANCH   5   6
ATOM      6  C   UNL     1       7.990  10.153  23.239  1.00  0.00    -0.000 C 
BRANCH   6   7
ATOM      7  C   UNL     1       9.521  10.210  23.340  1.00  0.00    -0.000 C 
BRANCH   7   8
ATOM      8  C   UNL     1      10.212  10.112  21.969  1.00  0.00    -0.000 C 
BRANCH   8   9
ATOM      9  C   UNL     1      11.476  10.986  21.881  1.00  0.00    -0.000 C 
BRANCH   9  10
ATOM     10  C   UNL     1      11.758  11.472  20.450  1.00  0.00    -0.000 C 
BRANCH  10  11
ATOM     11  C   UNL     1      10.806  10.853  19.416  1.00  0.00    -0.003 C 
ATOM     12  C   UNL     1       9.837  11.897  18.868  1.00  0.00     0.004 C 
ENDBRANCH  10  11
ENDBRANCH   9  10
ENDBRANCH   8   9
ENDBRANCH   7   8
ENDBRANCH   6   7
ENDBRANCH   5   6
ENDBRANCH   4   5
ENDBRANCH   3   4
ENDBRANCH   2   3
ENDBRANCH   1   2
BRANCH   1  13
ATOM     13  C   UNL     1      10.235  14.695  22.352  1.00  0.00     0.000 C 
BRANCH  13  14
ATOM     14  C   UNL     1      10.923  14.260  23.661  1.00  0.00     0.000 C 
BRANCH  14  15
ATOM     15  C   UNL     1      12.449  14.064  23.564  1.00  0.00     0.000 C 
BRANCH  15  16
ATOM     16  C   UNL     1      13.285  14.980  24.476  1.00  0.00     0.000 C 
BRANCH  16  17
ATOM     17  C   UNL     1      12.432  16.032  25.206  1.00  0.00     0.000 C 
BRANCH  17  18
ATOM     18  C   UNL     1      12.844  17.472  24.857  1.00  0.00     0.000 C 
BRANCH  18  19
ATOM     19  C   UNL     1      14.183  17.535  24.100  1.00  0.00     0.000 C 
BRANCH  19  20
ATOM     20  C   UNL     1      14.022  18.024  22.648  1.00  0.00     0.006 C 
BRANCH  20  21
ATOM     21  C   UNL     1      14.575  19.435  22.389  1.00  0.00     0.053 C 
BRANCH  21  22
ATOM     22  C   UNL     1      13.483  20.438  22.176  1.00  0.00     0.041 C 
ATOM     23  O   UNL     1      13.411  21.076  21.093  1.00  0.00    -0.550 OA
ATOM     24  O   UNL     1      12.524  20.642  23.160  1.00  0.00    -0.550 OA
ENDBRANCH  21  22
ENDBRANCH  20  21
ENDBRANCH  19  20
ENDBRANCH  18  19
ENDBRANCH  17  18
ENDBRANCH  16  17
ENDBRANCH  15  16
ENDBRANCH  14  15
ENDBRANCH  13  14
ENDBRANCH   1  13
TORSDOF 20
ENDMDL
MODEL 7
REMARK VINA RESULT:    -4.360      2.880      6.449
REMARK INTER + INTRA:         -12.386
REMARK INTER:                  -8.866
REMARK INTRA:                  -3.520
REMARK UNBOUND:                -2.928
REMARK SMILES CCCCCCCCCCCCCCCCCCCCCC(=O)[O-]
REMARK SMILES IDX 12 1 11 2 10 3 9 4 8 5 7 6 6 7 5 8 4 9 3 10 2 11 1 12 13 13
REMARK SMILES IDX 14 14 15 15 16 16 17 17 18 18 19 19 20 20 21 21 22 22 23 23
REMARK SMILES IDX 24 24
REMARK H PARENT
REMARK Flexibility Score: inf
ROOT
ATOM      1  C   UNL     1      11.772  18.511  22.378  1.00  0.00     0.000 C 
ENDROOT
BRANCH   1   2
ATOM      2  C   UNL     1      12.221  17.939  21.019  1.00  0.00     0.000 C 
BRANCH   2   3
ATOM      3  C   UNL     1      13.427  16.981  21.083  1.00  0.00     0.000 C 
BRANCH   3   4
ATOM      4  C   UNL     1      14.712  17.503  20.411  1.00  0.00    -0.000 C 
BRANCH   4   5
ATOM      5  C   UNL     1      14.498  18.635  19.391  1.00  0.00    -0.000 C 
BRANCH   5   6
ATOM      6  C   UNL     1      15.359  19.873  19.681  1.00  0.00    -0.000 C 
BRANCH   6   7
ATOM      7  C   UNL     1      14.478  21.100  19.961  1.00  0.00    -0.000 C 
BRANCH   7   8
ATOM      8  C   UNL     1      13.096  21.005  19.293  1.00  0.00    -0.000 C 
BRANCH   8   9
ATOM      9  C   UNL     1      11.995  21.703  20.111  1.00  0.00    -0.000 C 
BRANCH   9  10
ATOM     10  C   UNL     1      10.612  21.597  19.449  1.00  0.00    -0.000 C 
BRANCH  10  11
ATOM     11  C   UNL     1      10.215  20.147  19.133  1.00  0.00    -0.003 C 
ATOM     12  C   UNL     1       8.714  20.032  18.882  1.00  0.00     0.004 C 
ENDBRANCH  10  11
ENDBRANCH   9  10
ENDBRANCH   8   9
ENDBRANCH   7   8
ENDBRANCH   6   7
ENDBRANCH   5   6
ENDBRANCH   4   5
ENDBRANCH   3   4
ENDBRANCH   2   3
ENDBRANCH   1   2
BRANCH   1  13
ATOM     13  C   UNL     1      12.774  19.480  23.037  1.00  0.00     0.000 C 
BRANCH  13  14
ATOM     14  C   UNL     1      13.655  18.857  24.137  1.00  0.00     0.000 C 
BRANCH  14  15
ATOM     15  C   UNL     1      12.915  18.492  25.439  1.00  0.00     0.000 C 
BRANCH  15  16
ATOM     16  C   UNL     1      12.551  17.004  25.590  1.00  0.00     0.000 C 
BRANCH  16  17
ATOM     17  C   UNL     1      13.418  16.087  24.710  1.00  0.00     0.000 C 
BRANCH  17  18
ATOM     18  C   UNL     1      12.615  14.931  24.091  1.00  0.00     0.000 C 
BRANCH  18  19
ATOM     19  C   UNL     1      11.101  15.210  24.067  1.00  0.00     0.000 C 
BRANCH  19  20
ATOM     20  C   UNL     1      10.487  15.037  22.665  1.00  0.00     0.006 C 
BRANCH  20  21
ATOM     21  C   UNL     1      10.072  13.596  22.328  1.00  0.00     0.053 C 
BRANCH  21  22
ATOM     22  C   UNL     1       8.587  13.412  22.373  1.00  0.00     0.041 C 
ATOM     23  O   UNL     1       8.096  12.276  22.609  1.00  0.00    -0.550 OA
ATOM     24  O   UNL     1       7.744  14.501  22.188  1.00  0.00    -0.550 OA
ENDBRANCH  21  22
ENDBRANCH  20  21
ENDBRANCH  19  20
ENDBRANCH  18  19
ENDBRANCH  17  18
ENDBRANCH  16  17
ENDBRANCH  15  16
ENDBRANCH  14  15
ENDBRANCH  13  14
ENDBRANCH   1  13
TORSDOF 20
ENDMDL
MODEL 8
REMARK VINA RESULT:    -4.313      3.178      7.908
REMARK INTER + INTRA:         -12.285
REMARK INTER:                  -9.218
REMARK INTRA:                  -3.067
REMARK UNBOUND:                -2.928
REMARK SMILES CCCCCCCCCCCCCCCCCCCCCC(=O)[O-]
REMARK SMILES IDX 12 1 11 2 10 3 9 4 8 5 7 6 6 7 5 8 4 9 3 10 2 11 1 12 13 13
REMARK SMILES IDX 14 14 15 15 16 16 17 17 18 18 19 19 20 20 21 21 22 22 23 23
REMARK SMILES IDX 24 24
REMARK H PARENT
REMARK Flexibility Score: inf
ROOT
ATOM      1  C   UNL     1      11.570  19.430  23.409  1.00  0.00     0.000 C 
ENDROOT
BRANCH   1   2
ATOM      2  C   UNL     1      11.152  18.992  24.827  1.00  0.00     0.000 C 
BRANCH   2   3
ATOM      3  C   UNL     1      12.305  18.484  25.716  1.00  0.00     0.000 C 
BRANCH   3   4
ATOM      4  C   UNL     1      12.895  17.121  25.304  1.00  0.00    -0.000 C 
BRANCH   4   5
ATOM      5  C   UNL     1      11.855  16.033  24.983  1.00  0.00    -0.000 C 
BRANCH   5   6
ATOM      6  C   UNL     1      12.222  15.200  23.746  1.00  0.00    -0.000 C 
BRANCH   6   7
ATOM      7  C   UNL     1      11.720  15.877  22.462  1.00  0.00    -0.000 C 
BRANCH   7   8
ATOM      8  C   UNL     1      10.191  15.817  22.316  1.00  0.00    -0.000 C 
BRANCH   8   9
ATOM      9  C   UNL     1       9.646  14.379  22.396  1.00  0.00    -0.000 C 
BRANCH   9  10
ATOM     10  C   UNL     1       8.110  14.328  22.363  1.00  0.00    -0.000 C 
BRANCH  10  11
ATOM     11  C   UNL     1       7.569  12.909  22.138  1.00  0.00    -0.003 C 
ATOM     12  C   UNL     1       8.357  12.187  21.047  1.00  0.00     0.004 C 
ENDBRANCH  10  11
ENDBRANCH   9  10
ENDBRANCH   8   9
ENDBRANCH   7   8
ENDBRANCH   6   7
ENDBRANCH   5   6
ENDBRANCH   4   5
ENDBRANCH   3   4
ENDBRANCH   2   3
ENDBRANCH   1   2
BRANCH   1  13
ATOM     13  C   UNL     1      12.502  20.656  23.355  1.00  0.00     0.000 C 
BRANCH  13  14
ATOM     14  C   UNL     1      13.772  20.471  22.502  1.00  0.00     0.000 C 
BRANCH  14  15
ATOM     15  C   UNL     1      14.455  19.095  22.634  1.00  0.00     0.000 C 
BRANCH  15  16
ATOM     16  C   UNL     1      14.387  18.208  21.377  1.00  0.00     0.000 C 
BRANCH  16  17
ATOM     17  C   UNL     1      14.483  19.017  20.072  1.00  0.00     0.000 C 
BRANCH  17  18
ATOM     18  C   UNL     1      13.696  18.373  18.919  1.00  0.00     0.000 C 
BRANCH  18  19
ATOM     19  C   UNL     1      12.426  19.164  18.557  1.00  0.00     0.000 C 
BRANCH  19  20
ATOM     20  C   UNL     1      11.416  19.231  19.717  1.00  0.00     0.006 C 
BRANCH  20  21
ATOM     21  C   UNL     1      10.824  20.628  19.964  1.00  0.00     0.053 C 
BRANCH  21  22
ATOM     22  C   UNL     1       9.669  20.918  19.056  1.00  0.00     0.041 C 
ATOM     23  O   UNL     1       8.706  20.110  18.978  1.00  0.00    -0.550 OA
ATOM     24  O   UNL     1       9.638  22.098  18.324  1.00  0.00    -0.550 OA
ENDBRANCH  21  22
ENDBRANCH  20  21
ENDBRANCH  19  20
ENDBRANCH  18  19
ENDBRANCH  17  18
ENDBRANCH  16  17
ENDBRANCH  15  16
ENDBRANCH  14  15
ENDBRANCH  13  14
ENDBRANCH   1  13
TORSDOF 20
ENDMDL
MODEL 9
REMARK VINA RESULT:    -4.291      4.348      7.871
REMARK INTER + INTRA:         -12.237
REMARK INTER:                  -8.861
REMARK INTRA:                  -3.376
REMARK UNBOUND:                -2.928
REMARK SMILES CCCCCCCCCCCCCCCCCCCCCC(=O)[O-]
REMARK SMILES IDX 12 1 11 2 10 3 9 4 8 5 7 6 6 7 5 8 4 9 3 10 2 11 1 12 13 13
REMARK SMILES IDX 14 14 15 15 16 16 17 17 18 18 19 19 20 20 21 21 22 22 23 23
REMARK SMILES IDX 24 24
REMARK H PARENT
REMARK Flexibility Score: inf
ROOT
ATOM      1  C   UNL     1      14.765  19.635  22.517  1.00  0.00     0.000 C 
ENDROOT
BRANCH   1   2
ATOM      2  C   UNL     1      14.931  18.955  21.143  1.00  0.00     0.000 C 
BRANCH   2   3
ATOM      3  C   UNL     1      15.898  19.670  20.178  1.00  0.00     0.000 C 
BRANCH   3   4
ATOM      4  C   UNL     1      15.246  20.234  18.899  1.00  0.00    -0.000 C 
BRANCH   4   5
ATOM      5  C   UNL     1      14.569  21.605  19.067  1.00  0.00    -0.000 C 
BRANCH   5   6
ATOM      6  C   UNL     1      13.165  21.659  18.446  1.00  0.00    -0.000 C 
BRANCH   6   7
ATOM      7  C   UNL     1      12.228  20.646  19.122  1.00  0.00    -0.000 C 
BRANCH   7   8
ATOM      8  C   UNL     1      10.806  21.195  19.324  1.00  0.00    -0.000 C 
BRANCH   8   9
ATOM      9  C   UNL     1      10.794  22.699  19.652  1.00  0.00    -0.000 C 
BRANCH   9  10
ATOM     10  C   UNL     1      11.267  22.994  21.084  1.00  0.00    -0.000 C 
BRANCH  10  11
ATOM     11  C   UNL     1      10.103  23.268  22.048  1.00  0.00    -0.003 C 
ATOM     12  C   UNL     1      10.455  24.383  23.030  1.00  0.00     0.004 C 
ENDBRANCH  10  11
ENDBRANCH   9  10
ENDBRANCH   8   9
ENDBRANCH   7   8
ENDBRANCH   6   7
ENDBRANCH   5   6
ENDBRANCH   4   5
ENDBRANCH   3   4
ENDBRANCH   2   3
ENDBRANCH   1   2
BRANCH   1  13
ATOM     13  C   UNL     1      13.594  20.633  22.610  1.00  0.00     0.000 C 
BRANCH  13  14
ATOM     14  C   UNL     1      12.196  19.990  22.697  1.00  0.00     0.000 C 
BRANCH  14  15
ATOM     15  C   UNL     1      11.405  20.314  23.980  1.00  0.00     0.000 C 
BRANCH  15  16
ATOM     16  C   UNL     1      11.030  19.095  24.843  1.00  0.00     0.000 C 
BRANCH  16  17
ATOM     17  C   UNL     1      12.010  18.866  26.006  1.00  0.00     0.000 C 
BRANCH  17  18
ATOM     18  C   UNL     1      13.145  17.895  25.640  1.00  0.00     0.000 C 
BRANCH  18  19
ATOM     19  C   UNL     1      12.638  16.649  24.893  1.00  0.00     0.000 C 
BRANCH  19  20
ATOM     20  C   UNL     1      13.251  16.508  23.487  1.00  0.00     0.006 C 
BRANCH  20  21
ATOM     21  C   UNL     1      12.526  15.505  22.576  1.00  0.00     0.053 C 
BRANCH  21  22
ATOM     22  C   UNL     1      11.045  15.726  22.560  1.00  0.00     0.041 C 
ATOM     23  O   UNL     1      10.266  14.832  22.984  1.00  0.00    -0.550 OA
ATOM     24  O   UNL     1      10.526  16.934  22.110  1.00  0.00    -0.550 OA
ENDBRANCH  21  22
ENDBRANCH  20  21
ENDBRANCH  19  20
ENDBRANCH  18  19
ENDBRANCH  17  18
ENDBRANCH  16  17
ENDBRANCH  15  16
ENDBRANCH  14  15
ENDBRANCH  13  14
ENDBRANCH   1  13
TORSDOF 20
ENDMDL
