MODEL 1
REMARK VINA RESULT:    20.684      0.000      0.000
REMARK INTER + INTRA:          44.500
REMARK INTER:                  44.867
REMARK INTRA:                  -0.367
REMARK UNBOUND:                -0.367
REMARK SMILES CCCCCCCCCCCCCCCCCCCCCC(=O)[O-]
REMARK SMILES IDX 12 1 11 2 10 3 9 4 8 5 7 6 6 7 5 8 4 9 3 10 2 11 1 12 13 13
REMARK SMILES IDX 14 14 15 15 16 16 17 17 18 18 19 19 20 20 21 21 22 22 23 23
REMARK SMILES IDX 24 24
REMARK H PARENT
REMARK Flexibility Score: inf
ROOT
ATOM      1  C   UNL     1      -7.843 -13.441  21.868  1.00  0.00     0.000 C 
ENDROOT
BRANCH   1   2
ATOM      2  C   UNL     1      -9.001 -13.323  20.860  1.00  0.00     0.000 C 
BRANCH   2   3
ATOM      3  C   UNL     1      -8.833 -14.158  19.577  1.00  0.00     0.000 C 
BRANCH   3   4
ATOM      4  C   UNL     1      -9.168 -13.365  18.302  1.00  0.00    -0.000 C 
BRANCH   4   5
ATOM      5  C   UNL     1      -9.984 -14.193  17.295  1.00  0.00    -0.000 C 
BRANCH   5   6
ATOM      6  C   UNL     1      -9.387 -15.591  17.070  1.00  0.00    -0.000 C 
BRANCH   6   7
ATOM      7  C   UNL     1      -9.898 -16.584  18.125  1.00  0.00    -0.000 C 
BRANCH   7   8
ATOM      8  C   UNL     1      -9.688 -18.053  17.714  1.00  0.00    -0.000 C 
BRANCH   8   9
ATOM      9  C   UNL     1      -8.225 -18.448  17.421  1.00  0.00    -0.000 C 
BRANCH   9  10
ATOM     10  C   UNL     1      -7.948 -18.911  15.975  1.00  0.00    -0.000 C 
BRANCH  10  11
ATOM     11  C   UNL     1      -6.811 -19.940  15.831  1.00  0.00    -0.003 C 
ATOM     12  C   UNL     1      -6.258 -20.024  14.408  1.00  0.00     0.004 C 
ENDBRANCH  10  11
ENDBRANCH   9  10
ENDBRANCH   8   9
ENDBRANCH   7   8
ENDBRANCH   6   7
ENDBRANCH   5   6
ENDBRANCH   4   5
ENDBRANCH   3   4
ENDBRANCH   2   3
ENDBRANCH   1   2
BRANCH   1  13
ATOM     13  C   UNL     1      -7.466 -12.101  22.518  1.00  0.00     0.000 C 
BRANCH  13  14
ATOM     14  C   UNL     1      -6.498 -12.320  23.688  1.00  0.00     0.000 C 
BRANCH  14  15
ATOM     15  C   UNL     1      -6.463 -11.106  24.627  1.00  0.00     0.000 C 
BRANCH  15  16
ATOM     16  C   UNL     1      -5.796  -9.888  23.969  1.00  0.00     0.000 C 
BRANCH  16  17
ATOM     17  C   UNL     1      -5.082  -8.985  24.986  1.00  0.00     0.000 C 
BRANCH  17  18
ATOM     18  C   UNL     1      -3.569  -9.246  24.982  1.00  0.00     0.000 C 
BRANCH  18  19
ATOM     19  C   UNL     1      -2.805  -8.403  23.946  1.00  0.00     0.000 C 
BRANCH  19  20
ATOM     20  C   UNL     1      -1.279  -8.435  24.152  1.00  0.00     0.006 C 
BRANCH  20  21
ATOM     21  C   UNL     1      -0.873  -9.250  25.391  1.00  0.00     0.053 C 
BRANCH  21  22
ATOM     22  C   UNL     1       0.225  -8.593  26.172  1.00  0.00     0.041 C 
ATOM     23  O   UNL     1       0.376  -7.342  26.132  1.00  0.00    -0.550 OA
ATOM     24  O   UNL     1       1.077  -9.364  26.955  1.00  0.00    -0.550 OA
ENDBRANCH  21  22
ENDBRANCH  20  21
ENDBRANCH  19  20
ENDBRANCH  18  19
ENDBRANCH  17  18
ENDBRANCH  16  17
ENDBRANCH  15  16
ENDBRANCH  14  15
ENDBRANCH  13  14
ENDBRANCH   1  13
TORSDOF 20
ENDMDL
MODEL 2
REMARK VINA RESULT:    21.108      4.440      5.766
REMARK INTER + INTRA:          45.420
REMARK INTER:                  46.355
REMARK INTRA:                  -0.935
REMARK UNBOUND:                -0.367
REMARK SMILES CCCCCCCCCCCCCCCCCCCCCC(=O)[O-]
REMARK SMILES IDX 12 1 11 2 10 3 9 4 8 5 7 6 6 7 5 8 4 9 3 10 2 11 1 12 13 13
REMARK SMILES IDX 14 14 15 15 16 16 17 17 18 18 19 19 20 20 21 21 22 22 23 23
REMARK SMILES IDX 24 24
REMARK H PARENT
REMARK Flexibility Score: inf
ROOT
ATOM      1  C   UNL     1      -9.126 -13.465  20.769  1.00  0.00     0.000 C 
ENDROOT
BRANCH   1   2
ATOM      2  C   UNL     1      -8.518 -14.097  19.504  1.00  0.00     0.000 C 
BRANCH   2   3
ATOM      3  C   UNL     1      -9.197 -13.687  18.184  1.00  0.00     0.000 C 
BRANCH   3   4
ATOM      4  C   UNL     1      -9.747 -14.891  17.399  1.00  0.00    -0.000 C 
BRANCH   4   5
ATOM      5  C   UNL     1      -9.145 -16.224  17.874  1.00  0.00    -0.000 C 
BRANCH   5   6
ATOM      6  C   UNL     1     -10.138 -17.389  17.750  1.00  0.00    -0.000 C 
BRANCH   6   7
ATOM      7  C   UNL     1      -9.407 -18.740  17.767  1.00  0.00    -0.000 C 
BRANCH   7   8
ATOM      8  C   UNL     1      -8.665 -19.035  16.449  1.00  0.00    -0.000 C 
BRANCH   8   9
ATOM      9  C   UNL     1      -7.130 -19.144  16.573  1.00  0.00    -0.000 C 
BRANCH   9  10
ATOM     10  C   UNL     1      -6.481 -20.255  15.721  1.00  0.00    -0.000 C 
BRANCH  10  11
ATOM     11  C   UNL     1      -6.809 -20.194  14.218  1.00  0.00    -0.003 C 
ATOM     12  C   UNL     1      -5.811 -19.351  13.422  1.00  0.00     0.004 C 
ENDBRANCH  10  11
ENDBRANCH   9  10
ENDBRANCH   8   9
ENDBRANCH   7   8
ENDBRANCH   6   7
ENDBRANCH   5   6
ENDBRANCH   4   5
ENDBRANCH   3   4
ENDBRANCH   2   3
ENDBRANCH   1   2
BRANCH   1  13
ATOM     13  C   UNL     1      -8.183 -12.471  21.463  1.00  0.00     0.000 C 
BRANCH  13  14
ATOM     14  C   UNL     1      -7.429 -13.151  22.614  1.00  0.00     0.000 C 
BRANCH  14  15
ATOM     15  C   UNL     1      -6.632 -12.137  23.446  1.00  0.00     0.000 C 
BRANCH  15  16
ATOM     16  C   UNL     1      -6.328 -12.662  24.858  1.00  0.00     0.000 C 
BRANCH  16  17
ATOM     17  C   UNL     1      -5.464 -13.932  24.841  1.00  0.00     0.000 C 
BRANCH  17  18
ATOM     18  C   UNL     1      -5.171 -14.414  26.269  1.00  0.00     0.000 C 
BRANCH  18  19
ATOM     19  C   UNL     1      -4.597 -15.840  26.328  1.00  0.00     0.000 C 
BRANCH  19  20
ATOM     20  C   UNL     1      -5.687 -16.924  26.425  1.00  0.00     0.006 C 
BRANCH  20  21
ATOM     21  C   UNL     1      -5.245 -18.256  25.797  1.00  0.00     0.053 C 
BRANCH  21  22
ATOM     22  C   UNL     1      -5.407 -18.266  24.307  1.00  0.00     0.041 C 
ATOM     23  O   UNL     1      -4.635 -17.589  23.576  1.00  0.00    -0.550 OA
ATOM     24  O   UNL     1      -6.407 -19.036  23.723  1.00  0.00    -0.550 OA
ENDBRANCH  21  22
ENDBRANCH  20  21
ENDBRANCH  19  20
ENDBRANCH  18  19
ENDBRANCH  17  18
ENDBRANCH  16  17
ENDBRANCH  15  16
ENDBRANCH  14  15
ENDBRANCH  13  14
ENDBRANCH   1  13
TORSDOF 20
ENDMDL
MODEL 3
REMARK VINA RESULT:    21.265      4.446      5.782
REMARK INTER + INTRA:          45.762
REMARK INTER:                  46.752
REMARK INTRA:                  -0.990
REMARK UNBOUND:                -0.367
REMARK SMILES CCCCCCCCCCCCCCCCCCCCCC(=O)[O-]
REMARK SMILES IDX 12 1 11 2 10 3 9 4 8 5 7 6 6 7 5 8 4 9 3 10 2 11 1 12 13 13
REMARK SMILES IDX 14 14 15 15 16 16 17 17 18 18 19 19 20 20 21 21 22 22 23 23
REMARK SMILES IDX 24 24
REMARK H PARENT
REMARK Flexibility Score: inf
ROOT
ATOM      1  C   UNL     1      -7.818 -12.970  21.067  1.00  0.00     0.000 C 
ENDROOT
BRANCH   1   2
ATOM      2  C   UNL     1      -8.772 -14.015  20.459  1.00  0.00     0.000 C 
BRANCH   2   3
ATOM      3  C   UNL     1      -9.371 -13.630  19.094  1.00  0.00     0.000 C 
BRANCH   3   4
ATOM      4  C   UNL     1      -8.722 -14.388  17.923  1.00  0.00    -0.000 C 
BRANCH   4   5
ATOM      5  C   UNL     1      -9.581 -15.569  17.442  1.00  0.00    -0.000 C 
BRANCH   5   6
ATOM      6  C   UNL     1      -9.399 -16.818  18.318  1.00  0.00    -0.000 C 
BRANCH   6   7
ATOM      7  C   UNL     1     -10.212 -18.000  17.766  1.00  0.00    -0.000 C 
BRANCH   7   8
ATOM      8  C   UNL     1      -9.340 -19.033  17.029  1.00  0.00    -0.000 C 
BRANCH   8   9
ATOM      9  C   UNL     1      -7.948 -18.526  16.597  1.00  0.00    -0.000 C 
BRANCH   9  10
ATOM     10  C   UNL     1      -6.897 -19.627  16.346  1.00  0.00    -0.000 C 
BRANCH  10  11
ATOM     11  C   UNL     1      -6.922 -20.237  14.933  1.00  0.00    -0.003 C 
ATOM     12  C   UNL     1      -5.793 -19.722  14.039  1.00  0.00     0.004 C 
ENDBRANCH  10  11
ENDBRANCH   9  10
ENDBRANCH   8   9
ENDBRANCH   7   8
ENDBRANCH   6   7
ENDBRANCH   5   6
ENDBRANCH   4   5
ENDBRANCH   3   4
ENDBRANCH   2   3
ENDBRANCH   1   2
BRANCH   1  13
ATOM     13  C   UNL     1      -8.037 -12.753  22.572  1.00  0.00     0.000 C 
BRANCH  13  14
ATOM     14  C   UNL     1      -6.708 -12.446  23.274  1.00  0.00     0.000 C 
BRANCH  14  15
ATOM     15  C   UNL     1      -6.931 -11.905  24.694  1.00  0.00     0.000 C 
BRANCH  15  16
ATOM     16  C   UNL     1      -6.245 -12.778  25.757  1.00  0.00     0.000 C 
BRANCH  16  17
ATOM     17  C   UNL     1      -5.435 -13.929  25.142  1.00  0.00     0.000 C 
BRANCH  17  18
ATOM     18  C   UNL     1      -4.756 -14.766  26.235  1.00  0.00     0.000 C 
BRANCH  18  19
ATOM     19  C   UNL     1      -5.516 -16.059  26.577  1.00  0.00     0.000 C 
BRANCH  19  20
ATOM     20  C   UNL     1      -4.708 -17.332  26.262  1.00  0.00     0.006 C 
BRANCH  20  21
ATOM     21  C   UNL     1      -5.583 -18.447  25.664  1.00  0.00     0.053 C 
BRANCH  21  22
ATOM     22  C   UNL     1      -5.618 -18.403  24.166  1.00  0.00     0.041 C 
ATOM     23  O   UNL     1      -6.512 -19.023  23.530  1.00  0.00    -0.550 OA
ATOM     24  O   UNL     1      -4.667 -17.664  23.471  1.00  0.00    -0.550 OA
ENDBRANCH  21  22
ENDBRANCH  20  21
ENDBRANCH  19  20
ENDBRANCH  18  19
ENDBRANCH  17  18
ENDBRANCH  16  17
ENDBRANCH  15  16
ENDBRANCH  14  15
ENDBRANCH  13  14
ENDBRANCH   1  13
TORSDOF 20
ENDMDL
MODEL 4
REMARK VINA RESULT:    21.757      5.331     12.377
REMARK INTER + INTRA:          46.827
REMARK INTER:                  47.797
REMARK INTRA:                  -0.970
REMARK UNBOUND:                -0.367
REMARK SMILES CCCCCCCCCCCCCCCCCCCCCC(=O)[O-]
REMARK SMILES IDX 12 1 11 2 10 3 9 4 8 5 7 6 6 7 5 8 4 9 3 10 2 11 1 12 13 13
REMARK SMILES IDX 14 14 15 15 16 16 17 17 18 18 19 19 20 20 21 21 22 22 23 23
REMARK SMILES IDX 24 24
REMARK H PARENT
REMARK Flexibility Score: inf
ROOT
ATOM      1  C   UNL     1      -7.926 -13.776  21.512  1.00  0.00     0.000 C 
ENDROOT
BRANCH   1   2
ATOM      2  C   UNL     1      -7.651 -12.470  22.280  1.00  0.00     0.000 C 
BRANCH   2   3
ATOM      3  C   UNL     1      -6.584 -12.580  23.384  1.00  0.00     0.000 C 
BRANCH   3   4
ATOM      4  C   UNL     1      -6.568 -11.359  24.320  1.00  0.00    -0.000 C 
BRANCH   4   5
ATOM      5  C   UNL     1      -5.719 -10.204  23.762  1.00  0.00    -0.000 C 
BRANCH   5   6
ATOM      6  C   UNL     1      -5.433  -9.126  24.819  1.00  0.00    -0.000 C 
BRANCH   6   7
ATOM      7  C   UNL     1      -3.938  -9.085  25.172  1.00  0.00    -0.000 C 
BRANCH   7   8
ATOM      8  C   UNL     1      -3.106  -8.279  24.157  1.00  0.00    -0.000 C 
BRANCH   8   9
ATOM      9  C   UNL     1      -1.656  -8.772  23.962  1.00  0.00    -0.000 C 
BRANCH   9  10
ATOM     10  C   UNL     1      -0.990  -9.367  25.220  1.00  0.00    -0.000 C 
BRANCH  10  11
ATOM     11  C   UNL     1      -0.222  -8.353  26.087  1.00  0.00    -0.003 C 
ATOM     12  C   UNL     1       0.930  -8.987  26.868  1.00  0.00     0.004 C 
ENDBRANCH  10  11
ENDBRANCH   9  10
ENDBRANCH   8   9
ENDBRANCH   7   8
ENDBRANCH   6   7
ENDBRANCH   5   6
ENDBRANCH   4   5
ENDBRANCH   3   4
ENDBRANCH   2   3
ENDBRANCH   1   2
BRANCH   1  13
ATOM     13  C   UNL     1      -8.755 -13.565  20.236  1.00  0.00     0.000 C 
BRANCH  13  14
ATOM     14  C   UNL     1      -8.229 -14.447  19.096  1.00  0.00     0.000 C 
BRANCH  14  15
ATOM     15  C   UNL     1      -9.029 -14.236  17.802  1.00  0.00     0.000 C 
BRANCH  15  16
ATOM     16  C   UNL     1      -9.946 -15.429  17.492  1.00  0.00     0.000 C 
BRANCH  16  17
ATOM     17  C   UNL     1      -9.595 -16.674  18.320  1.00  0.00     0.000 C 
BRANCH  17  18
ATOM     18  C   UNL     1     -10.189 -17.940  17.685  1.00  0.00     0.000 C 
BRANCH  18  19
ATOM     19  C   UNL     1      -9.126 -18.971  17.266  1.00  0.00     0.000 C 
BRANCH  19  20
ATOM     20  C   UNL     1      -7.868 -18.324  16.658  1.00  0.00     0.006 C 
BRANCH  20  21
ATOM     21  C   UNL     1      -6.715 -19.328  16.494  1.00  0.00     0.053 C 
BRANCH  21  22
ATOM     22  C   UNL     1      -6.661 -19.914  15.115  1.00  0.00     0.041 C 
ATOM     23  O   UNL     1      -7.131 -19.280  14.132  1.00  0.00    -0.550 OA
ATOM     24  O   UNL     1      -6.078 -21.160  14.913  1.00  0.00    -0.550 OA
ENDBRANCH  21  22
ENDBRANCH  20  21
ENDBRANCH  19  20
ENDBRANCH  18  19
ENDBRANCH  17  18
ENDBRANCH  16  17
ENDBRANCH  15  16
ENDBRANCH  14  15
ENDBRANCH  13  14
ENDBRANCH   1  13
TORSDOF 20
ENDMDL
MODEL 5
REMARK VINA RESULT:    22.128      6.086     11.053
REMARK INTER + INTRA:          47.633
REMARK INTER:                  48.741
REMARK INTRA:                  -1.108
REMARK UNBOUND:                -0.367
REMARK SMILES CCCCCCCCCCCCCCCCCCCCCC(=O)[O-]
REMARK SMILES IDX 12 1 11 2 10 3 9 4 8 5 7 6 6 7 5 8 4 9 3 10 2 11 1 12 13 13
REMARK SMILES IDX 14 14 15 15 16 16 17 17 18 18 19 19 20 20 21 21 22 22 23 23
REMARK SMILES IDX 24 24
REMARK H PARENT
REMARK Flexibility Score: inf
ROOT
ATOM      1  C   UNL     1      -8.149 -13.618  21.273  1.00  0.00     0.000 C 
ENDROOT
BRANCH   1   2
ATOM      2  C   UNL     1      -7.960 -12.473  22.285  1.00  0.00     0.000 C 
BRANCH   2   3
ATOM      3  C   UNL     1      -6.636 -12.514  23.071  1.00  0.00     0.000 C 
BRANCH   3   4
ATOM      4  C   UNL     1      -6.748 -11.862  24.460  1.00  0.00    -0.000 C 
BRANCH   4   5
ATOM      5  C   UNL     1      -6.405 -12.842  25.595  1.00  0.00    -0.000 C 
BRANCH   5   6
ATOM      6  C   UNL     1      -5.614 -14.060  25.096  1.00  0.00    -0.000 C 
BRANCH   6   7
ATOM      7  C   UNL     1      -4.756 -14.658  26.221  1.00  0.00    -0.000 C 
BRANCH   7   8
ATOM      8  C   UNL     1      -5.325 -15.979  26.771  1.00  0.00    -0.000 C 
BRANCH   8   9
ATOM      9  C   UNL     1      -4.718 -17.259  26.159  1.00  0.00    -0.000 C 
BRANCH   9  10
ATOM     10  C   UNL     1      -5.739 -18.342  25.754  1.00  0.00    -0.000 C 
BRANCH  10  11
ATOM     11  C   UNL     1      -5.805 -18.638  24.244  1.00  0.00    -0.003 C 
ATOM     12  C   UNL     1      -5.048 -17.612  23.400  1.00  0.00     0.004 C 
ENDBRANCH  10  11
ENDBRANCH   9  10
ENDBRANCH   8   9
ENDBRANCH   7   8
ENDBRANCH   6   7
ENDBRANCH   5   6
ENDBRANCH   4   5
ENDBRANCH   3   4
ENDBRANCH   2   3
ENDBRANCH   1   2
BRANCH   1  13
ATOM     13  C   UNL     1      -9.071 -13.245  20.102  1.00  0.00     0.000 C 
BRANCH  13  14
ATOM     14  C   UNL     1      -8.476 -13.722  18.771  1.00  0.00     0.000 C 
BRANCH  14  15
ATOM     15  C   UNL     1      -9.539 -14.385  17.882  1.00  0.00     0.000 C 
BRANCH  15  16
ATOM     16  C   UNL     1      -9.917 -15.787  18.386  1.00  0.00     0.000 C 
BRANCH  16  17
ATOM     17  C   UNL     1      -9.313 -16.906  17.524  1.00  0.00     0.000 C 
BRANCH  17  18
ATOM     18  C   UNL     1     -10.085 -18.219  17.713  1.00  0.00     0.000 C 
BRANCH  18  19
ATOM     19  C   UNL     1      -9.389 -19.435  17.077  1.00  0.00     0.000 C 
BRANCH  19  20
ATOM     20  C   UNL     1      -8.489 -19.057  15.885  1.00  0.00     0.006 C 
BRANCH  20  21
ATOM     21  C   UNL     1      -6.995 -19.243  16.198  1.00  0.00     0.053 C 
BRANCH  21  22
ATOM     22  C   UNL     1      -6.356 -20.287  15.331  1.00  0.00     0.041 C 
ATOM     23  O   UNL     1      -6.223 -21.469  15.748  1.00  0.00    -0.550 OA
ATOM     24  O   UNL     1      -5.918 -19.954  14.054  1.00  0.00    -0.550 OA
ENDBRANCH  21  22
ENDBRANCH  20  21
ENDBRANCH  19  20
ENDBRANCH  18  19
ENDBRANCH  17  18
ENDBRANCH  16  17
ENDBRANCH  15  16
ENDBRANCH  14  15
ENDBRANCH  13  14
ENDBRANCH   1  13
TORSDOF 20
ENDMDL
MODEL 6
REMARK VINA RESULT:    22.381      5.010      6.777
REMARK INTER + INTRA:          48.182
REMARK INTER:                  49.017
REMARK INTRA:                  -0.834
REMARK UNBOUND:                -0.367
REMARK SMILES CCCCCCCCCCCCCCCCCCCCCC(=O)[O-]
REMARK SMILES IDX 12 1 11 2 10 3 9 4 8 5 7 6 6 7 5 8 4 9 3 10 2 11 1 12 13 13
REMARK SMILES IDX 14 14 15 15 16 16 17 17 18 18 19 19 20 20 21 21 22 22 23 23
REMARK SMILES IDX 24 24
REMARK H PARENT
REMARK Flexibility Score: inf
ROOT
ATOM      1  C   UNL     1      -9.002 -13.274  20.800  1.00  0.00     0.000 C 
ENDROOT
BRANCH   1   2
ATOM      2  C   UNL     1      -9.118 -14.424  19.784  1.00  0.00     0.000 C 
BRANCH   2   3
ATOM      3  C   UNL     1      -8.421 -14.171  18.435  1.00  0.00     0.000 C 
BRANCH   3   4
ATOM      4  C   UNL     1      -9.300 -14.546  17.230  1.00  0.00    -0.000 C 
BRANCH   4   5
ATOM      5  C   UNL     1     -10.261 -13.414  16.830  1.00  0.00    -0.000 C 
BRANCH   5   6
ATOM      6  C   UNL     1     -10.363 -13.244  15.307  1.00  0.00    -0.000 C 
BRANCH   6   7
ATOM      7  C   UNL     1      -9.927 -11.834  14.880  1.00  0.00    -0.000 C 
BRANCH   7   8
ATOM      8  C   UNL     1      -9.490 -11.764  13.405  1.00  0.00    -0.000 C 
BRANCH   8   9
ATOM      9  C   UNL     1      -8.835 -13.049  12.855  1.00  0.00    -0.000 C 
BRANCH   9  10
ATOM     10  C   UNL     1      -9.610 -13.745  11.717  1.00  0.00    -0.000 C 
BRANCH  10  11
ATOM     11  C   UNL     1     -11.141 -13.596  11.791  1.00  0.00    -0.003 C 
ATOM     12  C   UNL     1     -11.650 -12.323  11.114  1.00  0.00     0.004 C 
ENDBRANCH  10  11
ENDBRANCH   9  10
ENDBRANCH   8   9
ENDBRANCH   7   8
ENDBRANCH   6   7
ENDBRANCH   5   6
ENDBRANCH   4   5
ENDBRANCH   3   4
ENDBRANCH   2   3
ENDBRANCH   1   2
BRANCH   1  13
ATOM     13  C   UNL     1      -7.872 -13.478  21.821  1.00  0.00     0.000 C 
BRANCH  13  14
ATOM     14  C   UNL     1      -7.597 -12.181  22.592  1.00  0.00     0.000 C 
BRANCH  14  15
ATOM     15  C   UNL     1      -6.301 -12.273  23.410  1.00  0.00     0.000 C 
BRANCH  15  16
ATOM     16  C   UNL     1      -6.547 -12.033  24.908  1.00  0.00     0.000 C 
BRANCH  16  17
ATOM     17  C   UNL     1      -6.558 -13.336  25.721  1.00  0.00     0.000 C 
BRANCH  17  18
ATOM     18  C   UNL     1      -5.134 -13.877  25.908  1.00  0.00     0.000 C 
BRANCH  18  19
ATOM     19  C   UNL     1      -5.085 -15.240  26.619  1.00  0.00     0.000 C 
BRANCH  19  20
ATOM     20  C   UNL     1      -4.480 -16.354  25.743  1.00  0.00     0.006 C 
BRANCH  20  21
ATOM     21  C   UNL     1      -5.335 -17.631  25.749  1.00  0.00     0.053 C 
BRANCH  21  22
ATOM     22  C   UNL     1      -5.376 -18.296  24.405  1.00  0.00     0.041 C 
ATOM     23  O   UNL     1      -6.087 -19.321  24.221  1.00  0.00    -0.550 OA
ATOM     24  O   UNL     1      -4.637 -17.774  23.350  1.00  0.00    -0.550 OA
ENDBRANCH  21  22
ENDBRANCH  20  21
ENDBRANCH  19  20
ENDBRANCH  18  19
ENDBRANCH  17  18
ENDBRANCH  16  17
ENDBRANCH  15  16
ENDBRANCH  14  15
ENDBRANCH  13  14
ENDBRANCH   1  13
TORSDOF 20
ENDMDL
MODEL 7
REMARK VINA RESULT:    22.647      6.210     10.783
REMARK INTER + INTRA:          48.758
REMARK INTER:                  49.261
REMARK INTRA:                  -0.503
REMARK UNBOUND:                -0.367
REMARK SMILES CCCCCCCCCCCCCCCCCCCCCC(=O)[O-]
REMARK SMILES IDX 12 1 11 2 10 3 9 4 8 5 7 6 6 7 5 8 4 9 3 10 2 11 1 12 13 13
REMARK SMILES IDX 14 14 15 15 16 16 17 17 18 18 19 19 20 20 21 21 22 22 23 23
REMARK SMILES IDX 24 24
REMARK H PARENT
REMARK Flexibility Score: inf
ROOT
ATOM      1  C   UNL     1      -4.379  -8.812  24.808  1.00  0.00     0.000 C 
ENDROOT
BRANCH   1   2
ATOM      2  C   UNL     1      -4.545  -8.035  23.489  1.00  0.00     0.000 C 
BRANCH   2   3
ATOM      3  C   UNL     1      -3.519  -6.908  23.267  1.00  0.00     0.000 C 
BRANCH   3   4
ATOM      4  C   UNL     1      -2.073  -7.356  23.543  1.00  0.00    -0.000 C 
BRANCH   4   5
ATOM      5  C   UNL     1      -1.398  -7.958  22.298  1.00  0.00    -0.000 C 
BRANCH   5   6
ATOM      6  C   UNL     1      -1.692  -9.457  22.142  1.00  0.00    -0.000 C 
BRANCH   6   7
ATOM      7  C   UNL     1      -0.626 -10.304  22.854  1.00  0.00    -0.000 C 
BRANCH   7   8
ATOM      8  C   UNL     1      -0.899 -10.466  24.361  1.00  0.00    -0.000 C 
BRANCH   8   9
ATOM      9  C   UNL     1      -0.859  -9.158  25.178  1.00  0.00    -0.000 C 
BRANCH   9  10
ATOM     10  C   UNL     1       0.020  -9.202  26.446  1.00  0.00    -0.000 C 
BRANCH  10  11
ATOM     11  C   UNL     1       0.733  -7.881  26.787  1.00  0.00    -0.003 C 
ATOM     12  C   UNL     1       0.714  -6.877  25.633  1.00  0.00     0.004 C 
ENDBRANCH  10  11
ENDBRANCH   9  10
ENDBRANCH   8   9
ENDBRANCH   7   8
ENDBRANCH   6   7
ENDBRANCH   5   6
ENDBRANCH   4   5
ENDBRANCH   3   4
ENDBRANCH   2   3
ENDBRANCH   1   2
BRANCH   1  13
ATOM     13  C   UNL     1      -5.486  -9.852  25.041  1.00  0.00     0.000 C 
BRANCH  13  14
ATOM     14  C   UNL     1      -5.695 -10.711  23.787  1.00  0.00     0.000 C 
BRANCH  14  15
ATOM     15  C   UNL     1      -6.743 -11.809  24.023  1.00  0.00     0.000 C 
BRANCH  15  16
ATOM     16  C   UNL     1      -6.099 -13.138  24.448  1.00  0.00     0.000 C 
BRANCH  16  17
ATOM     17  C   UNL     1      -6.171 -13.368  25.965  1.00  0.00     0.000 C 
BRANCH  17  18
ATOM     18  C   UNL     1      -4.894 -14.052  26.476  1.00  0.00     0.000 C 
BRANCH  18  19
ATOM     19  C   UNL     1      -5.067 -15.559  26.730  1.00  0.00     0.000 C 
BRANCH  19  20
ATOM     20  C   UNL     1      -4.689 -16.421  25.510  1.00  0.00     0.006 C 
BRANCH  20  21
ATOM     21  C   UNL     1      -5.370 -17.800  25.536  1.00  0.00     0.053 C 
BRANCH  21  22
ATOM     22  C   UNL     1      -5.482 -18.406  24.169  1.00  0.00     0.041 C 
ATOM     23  O   UNL     1      -6.409 -19.219  23.906  1.00  0.00    -0.550 OA
ATOM     24  O   UNL     1      -4.568 -18.061  23.180  1.00  0.00    -0.550 OA
ENDBRANCH  21  22
ENDBRANCH  20  21
ENDBRANCH  19  20
ENDBRANCH  18  19
ENDBRANCH  17  18
ENDBRANCH  16  17
ENDBRANCH  15  16
ENDBRANCH  14  15
ENDBRANCH  13  14
ENDBRANCH   1  13
TORSDOF 20
ENDMDL
MODEL 8
REMARK VINA RESULT:    22.774      2.053      2.590
REMARK INTER + INTRA:          49.035
REMARK INTER:                  49.887
REMARK INTRA:                  -0.852
REMARK UNBOUND:                -0.367
REMARK SMILES CCCCCCCCCCCCCCCCCCCCCC(=O)[O-]
REMARK SMILES IDX 12 1 11 2 10 3 9 4 8 5 7 6 6 7 5 8 4 9 3 10 2 11 1 12 13 13
REMARK SMILES IDX 14 14 15 15 16 16 17 17 18 18 19 19 20 20 21 21 22 22 23 23
REMARK SMILES IDX 24 24
REMARK H PARENT
REMARK Flexibility Score: inf
ROOT
ATOM      1  C   UNL     1      -7.703 -13.439  21.954  1.00  0.00     0.000 C 
ENDROOT
BRANCH   1   2
ATOM      2  C   UNL     1      -8.861 -13.316  20.946  1.00  0.00     0.000 C 
BRANCH   2   3
ATOM      3  C   UNL     1      -8.853 -14.364  19.818  1.00  0.00     0.000 C 
BRANCH   3   4
ATOM      4  C   UNL     1      -9.109 -13.748  18.432  1.00  0.00    -0.000 C 
BRANCH   4   5
ATOM      5  C   UNL     1      -9.874 -14.702  17.499  1.00  0.00    -0.000 C 
BRANCH   5   6
ATOM      6  C   UNL     1      -9.166 -16.056  17.341  1.00  0.00    -0.000 C 
BRANCH   6   7
ATOM      7  C   UNL     1      -9.981 -17.182  17.994  1.00  0.00    -0.000 C 
BRANCH   7   8
ATOM      8  C   UNL     1      -9.691 -18.564  17.380  1.00  0.00    -0.000 C 
BRANCH   8   9
ATOM      9  C   UNL     1      -8.196 -18.882  17.161  1.00  0.00    -0.000 C 
BRANCH   9  10
ATOM     10  C   UNL     1      -7.778 -19.086  15.690  1.00  0.00    -0.000 C 
BRANCH  10  11
ATOM     11  C   UNL     1      -6.495 -19.915  15.490  1.00  0.00    -0.003 C 
ATOM     12  C   UNL     1      -5.994 -19.902  14.045  1.00  0.00     0.004 C 
ENDBRANCH  10  11
ENDBRANCH   9  10
ENDBRANCH   8   9
ENDBRANCH   7   8
ENDBRANCH   6   7
ENDBRANCH   5   6
ENDBRANCH   4   5
ENDBRANCH   3   4
ENDBRANCH   2   3
ENDBRANCH   1   2
BRANCH   1  13
ATOM     13  C   UNL     1      -7.373 -12.116  22.662  1.00  0.00     0.000 C 
BRANCH  13  14
ATOM     14  C   UNL     1      -6.226 -12.309  23.663  1.00  0.00     0.000 C 
BRANCH  14  15
ATOM     15  C   UNL     1      -6.453 -11.496  24.946  1.00  0.00     0.000 C 
BRANCH  15  16
ATOM     16  C   UNL     1      -6.126 -10.008  24.751  1.00  0.00     0.000 C 
BRANCH  16  17
ATOM     17  C   UNL     1      -5.378  -9.406  25.950  1.00  0.00     0.000 C 
BRANCH  17  18
ATOM     18  C   UNL     1      -4.254  -8.471  25.480  1.00  0.00     0.000 C 
BRANCH  18  19
ATOM     19  C   UNL     1      -3.499  -8.993  24.245  1.00  0.00     0.000 C 
BRANCH  19  20
ATOM     20  C   UNL     1      -2.515  -7.962  23.662  1.00  0.00     0.006 C 
BRANCH  20  21
ATOM     21  C   UNL     1      -3.171  -7.064  22.599  1.00  0.00     0.053 C 
BRANCH  21  22
ATOM     22  C   UNL     1      -2.584  -7.272  21.235  1.00  0.00     0.041 C 
ATOM     23  O   UNL     1      -1.364  -7.559  21.103  1.00  0.00    -0.550 OA
ATOM     24  O   UNL     1      -3.391  -7.161  20.109  1.00  0.00    -0.550 OA
ENDBRANCH  21  22
ENDBRANCH  20  21
ENDBRANCH  19  20
ENDBRANCH  18  19
ENDBRANCH  17  18
ENDBRANCH  16  17
ENDBRANCH  15  16
ENDBRANCH  14  15
ENDBRANCH  13  14
ENDBRANCH   1  13
TORSDOF 20
ENDMDL
MODEL 9
REMARK VINA RESULT:    22.953      5.404     11.955
REMARK INTER + INTRA:          49.423
REMARK INTER:                  50.313
REMARK INTRA:                  -0.890
REMARK UNBOUND:                -0.367
REMARK SMILES CCCCCCCCCCCCCCCCCCCCCC(=O)[O-]
REMARK SMILES IDX 12 1 11 2 10 3 9 4 8 5 7 6 6 7 5 8 4 9 3 10 2 11 1 12 13 13
REMARK SMILES IDX 14 14 15 15 16 16 17 17 18 18 19 19 20 20 21 21 22 22 23 23
REMARK SMILES IDX 24 24
REMARK H PARENT
REMARK Flexibility Score: inf
ROOT
ATOM      1  C   UNL     1      -7.613 -12.124  22.163  1.00  0.00     0.000 C 
ENDROOT
BRANCH   1   2
ATOM      2  C   UNL     1      -6.762 -12.683  23.317  1.00  0.00     0.000 C 
BRANCH   2   3
ATOM      3  C   UNL     1      -6.495 -11.693  24.465  1.00  0.00     0.000 C 
BRANCH   3   4
ATOM      4  C   UNL     1      -5.757 -10.426  24.000  1.00  0.00    -0.000 C 
BRANCH   4   5
ATOM      5  C   UNL     1      -5.329  -9.532  25.176  1.00  0.00    -0.000 C 
BRANCH   5   6
ATOM      6  C   UNL     1      -4.386  -8.402  24.737  1.00  0.00    -0.000 C 
BRANCH   6   7
ATOM      7  C   UNL     1      -2.967  -8.936  24.487  1.00  0.00    -0.000 C 
BRANCH   7   8
ATOM      8  C   UNL     1      -2.079  -7.938  23.721  1.00  0.00    -0.000 C 
BRANCH   8   9
ATOM      9  C   UNL     1      -1.452  -8.485  22.421  1.00  0.00    -0.000 C 
BRANCH   9  10
ATOM     10  C   UNL     1      -1.611  -7.578  21.183  1.00  0.00    -0.000 C 
BRANCH  10  11
ATOM     11  C   UNL     1      -3.052  -7.114  20.900  1.00  0.00    -0.003 C 
ATOM     12  C   UNL     1      -3.413  -7.158  19.415  1.00  0.00     0.004 C 
ENDBRANCH  10  11
ENDBRANCH   9  10
ENDBRANCH   8   9
ENDBRANCH   7   8
ENDBRANCH   6   7
ENDBRANCH   5   6
ENDBRANCH   4   5
ENDBRANCH   3   4
ENDBRANCH   2   3
ENDBRANCH   1   2
BRANCH   1  13
ATOM     13  C   UNL     1      -8.662 -13.121  21.645  1.00  0.00     0.000 C 
BRANCH  13  14
ATOM     14  C   UNL     1      -8.745 -13.073  20.113  1.00  0.00     0.000 C 
BRANCH  14  15
ATOM     15  C   UNL     1      -8.982 -14.468  19.517  1.00  0.00     0.000 C 
BRANCH  15  16
ATOM     16  C   UNL     1      -9.274 -14.407  18.009  1.00  0.00     0.000 C 
BRANCH  16  17
ATOM     17  C   UNL     1      -9.092 -15.767  17.318  1.00  0.00     0.000 C 
BRANCH  17  18
ATOM     18  C   UNL     1      -9.880 -16.863  18.049  1.00  0.00     0.000 C 
BRANCH  18  19
ATOM     19  C   UNL     1      -9.454 -18.288  17.656  1.00  0.00     0.000 C 
BRANCH  19  20
ATOM     20  C   UNL     1      -8.445 -18.315  16.492  1.00  0.00     0.006 C 
BRANCH  20  21
ATOM     21  C   UNL     1      -7.421 -19.453  16.632  1.00  0.00     0.053 C 
BRANCH  21  22
ATOM     22  C   UNL     1      -6.829 -19.853  15.314  1.00  0.00     0.041 C 
ATOM     23  O   UNL     1      -6.302 -20.990  15.170  1.00  0.00    -0.550 OA
ATOM     24  O   UNL     1      -6.870 -18.973  14.239  1.00  0.00    -0.550 OA
ENDBRANCH  21  22
ENDBRANCH  20  21
ENDBRANCH  19  20
ENDBRANCH  18  19
ENDBRANCH  17  18
ENDBRANCH  16  17
ENDBRANCH  15  16
ENDBRANCH  14  15
ENDBRANCH  13  14
ENDBRANCH   1  13
TORSDOF 20
ENDMDL
