MODEL 1
REMARK VINA RESULT:    -3.355      0.000      0.000
REMARK INTER + INTRA:         -10.982
REMARK INTER:                  -7.278
REMARK INTRA:                  -3.704
REMARK UNBOUND:                -3.704
REMARK SMILES CCCCCCCCCCCCCCCCCCCCCC(=O)[O-]
REMARK SMILES IDX 12 1 11 2 10 3 9 4 8 5 7 6 6 7 5 8 4 9 3 10 2 11 1 12 13 13
REMARK SMILES IDX 14 14 15 15 16 16 17 17 18 18 19 19 20 20 21 21 22 22 23 23
REMARK SMILES IDX 24 24
REMARK H PARENT
REMARK Flexibility Score: inf
ROOT
ATOM      1  C   UNL     1     186.880 175.203 174.817  1.00  0.00     0.000 C 
ENDROOT
BRANCH   1   2
ATOM      2  C   UNL     1     187.657 175.726 173.601  1.00  0.00     0.000 C 
BRANCH   2   3
ATOM      3  C   UNL     1     188.342 174.607 172.795  1.00  0.00     0.000 C 
BRANCH   3   4
ATOM      4  C   UNL     1     189.740 174.958 172.251  1.00  0.00    -0.000 C 
BRANCH   4   5
ATOM      5  C   UNL     1     190.897 174.137 172.854  1.00  0.00    -0.000 C 
BRANCH   5   6
ATOM      6  C   UNL     1     190.432 172.987 173.773  1.00  0.00    -0.000 C 
BRANCH   6   7
ATOM      7  C   UNL     1     190.954 173.142 175.212  1.00  0.00    -0.000 C 
BRANCH   7   8
ATOM      8  C   UNL     1     190.215 174.237 176.001  1.00  0.00    -0.000 C 
BRANCH   8   9
ATOM      9  C   UNL     1     191.177 175.212 176.704  1.00  0.00    -0.000 C 
BRANCH   9  10
ATOM     10  C   UNL     1     190.875 176.688 176.384  1.00  0.00    -0.000 C 
BRANCH  10  11
ATOM     11  C   UNL     1     191.366 177.168 175.005  1.00  0.00    -0.003 C 
ATOM     12  C   UNL     1     190.366 178.086 174.300  1.00  0.00     0.004 C 
ENDBRANCH  10  11
ENDBRANCH   9  10
ENDBRANCH   8   9
ENDBRANCH   7   8
ENDBRANCH   6   7
ENDBRANCH   5   6
ENDBRANCH   4   5
ENDBRANCH   3   4
ENDBRANCH   2   3
ENDBRANCH   1   2
BRANCH   1  13
ATOM     13  C   UNL     1     186.742 173.673 174.762  1.00  0.00     0.000 C 
BRANCH  13  14
ATOM     14  C   UNL     1     186.767 173.024 176.154  1.00  0.00     0.000 C 
BRANCH  14  15
ATOM     15  C   UNL     1     185.592 173.468 177.039  1.00  0.00     0.000 C 
BRANCH  15  16
ATOM     16  C   UNL     1     186.097 174.033 178.373  1.00  0.00     0.000 C 
BRANCH  16  17
ATOM     17  C   UNL     1     187.583 173.705 178.585  1.00  0.00     0.000 C 
BRANCH  17  18
ATOM     18  C   UNL     1     188.378 174.896 179.144  1.00  0.00     0.000 C 
BRANCH  18  19
ATOM     19  C   UNL     1     187.470 175.957 179.793  1.00  0.00     0.000 C 
BRANCH  19  20
ATOM     20  C   UNL     1     188.006 176.450 181.152  1.00  0.00     0.006 C 
BRANCH  20  21
ATOM     21  C   UNL     1     189.539 176.425 181.276  1.00  0.00     0.053 C 
BRANCH  21  22
ATOM     22  C   UNL     1     190.169 177.657 180.703  1.00  0.00     0.041 C 
ATOM     23  O   UNL     1     191.122 177.558 179.884  1.00  0.00    -0.550 OA
ATOM     24  O   UNL     1     189.684 178.915 181.046  1.00  0.00    -0.550 OA
ENDBRANCH  21  22
ENDBRANCH  20  21
ENDBRANCH  19  20
ENDBRANCH  18  19
ENDBRANCH  17  18
ENDBRANCH  16  17
ENDBRANCH  15  16
ENDBRANCH  14  15
ENDBRANCH  13  14
ENDBRANCH   1  13
TORSDOF 20
ENDMDL
MODEL 2
REMARK VINA RESULT:    -3.334      1.430      2.344
REMARK INTER + INTRA:         -10.935
REMARK INTER:                  -6.960
REMARK INTRA:                  -3.975
REMARK UNBOUND:                -3.704
REMARK SMILES CCCCCCCCCCCCCCCCCCCCCC(=O)[O-]
REMARK SMILES IDX 12 1 11 2 10 3 9 4 8 5 7 6 6 7 5 8 4 9 3 10 2 11 1 12 13 13
REMARK SMILES IDX 14 14 15 15 16 16 17 17 18 18 19 19 20 20 21 21 22 22 23 23
REMARK SMILES IDX 24 24
REMARK H PARENT
REMARK Flexibility Score: inf
ROOT
ATOM      1  C   UNL     1     187.751 176.070 176.104  1.00  0.00     0.000 C 
ENDROOT
BRANCH   1   2
ATOM      2  C   UNL     1     187.095 174.840 175.461  1.00  0.00     0.000 C 
BRANCH   2   3
ATOM      3  C   UNL     1     187.710 174.470 174.099  1.00  0.00     0.000 C 
BRANCH   3   4
ATOM      4  C   UNL     1     188.659 173.256 174.120  1.00  0.00    -0.000 C 
BRANCH   4   5
ATOM      5  C   UNL     1     190.159 173.602 174.053  1.00  0.00    -0.000 C 
BRANCH   5   6
ATOM      6  C   UNL     1     190.893 173.460 175.404  1.00  0.00    -0.000 C 
BRANCH   6   7
ATOM      7  C   UNL     1     191.310 174.821 175.989  1.00  0.00    -0.000 C 
BRANCH   7   8
ATOM      8  C   UNL     1     191.132 175.979 174.993  1.00  0.00    -0.000 C 
BRANCH   8   9
ATOM      9  C   UNL     1     191.287 177.360 175.656  1.00  0.00    -0.000 C 
BRANCH   9  10
ATOM     10  C   UNL     1     191.351 177.284 177.193  1.00  0.00    -0.000 C 
BRANCH  10  11
ATOM     11  C   UNL     1     191.121 178.622 177.921  1.00  0.00    -0.003 C 
ATOM     12  C   UNL     1     189.661 179.078 177.888  1.00  0.00     0.004 C 
ENDBRANCH  10  11
ENDBRANCH   9  10
ENDBRANCH   8   9
ENDBRANCH   7   8
ENDBRANCH   6   7
ENDBRANCH   5   6
ENDBRANCH   4   5
ENDBRANCH   3   4
ENDBRANCH   2   3
ENDBRANCH   1   2
BRANCH   1  13
ATOM     13  C   UNL     1     187.891 175.887 177.623  1.00  0.00     0.000 C 
BRANCH  13  14
ATOM     14  C   UNL     1     188.606 174.581 178.000  1.00  0.00     0.000 C 
BRANCH  14  15
ATOM     15  C   UNL     1     187.777 173.702 178.949  1.00  0.00     0.000 C 
BRANCH  15  16
ATOM     16  C   UNL     1     186.387 174.307 179.179  1.00  0.00     0.000 C 
BRANCH  16  17
ATOM     17  C   UNL     1     186.219 174.773 180.634  1.00  0.00     0.000 C 
BRANCH  17  18
ATOM     18  C   UNL     1     185.762 176.237 180.738  1.00  0.00     0.000 C 
BRANCH  18  19
ATOM     19  C   UNL     1     186.945 177.215 180.868  1.00  0.00     0.000 C 
BRANCH  19  20
ATOM     20  C   UNL     1     188.124 176.622 181.665  1.00  0.00     0.006 C 
BRANCH  20  21
ATOM     21  C   UNL     1     189.482 176.711 180.949  1.00  0.00     0.053 C 
BRANCH  21  22
ATOM     22  C   UNL     1     190.307 177.856 181.450  1.00  0.00     0.041 C 
ATOM     23  O   UNL     1     189.747 178.911 181.852  1.00  0.00    -0.550 OA
ATOM     24  O   UNL     1     191.692 177.748 181.504  1.00  0.00    -0.550 OA
ENDBRANCH  21  22
ENDBRANCH  20  21
ENDBRANCH  19  20
ENDBRANCH  18  19
ENDBRANCH  17  18
ENDBRANCH  16  17
ENDBRANCH  15  16
ENDBRANCH  14  15
ENDBRANCH  13  14
ENDBRANCH   1  13
TORSDOF 20
ENDMDL
MODEL 3
REMARK VINA RESULT:    -3.332      2.588      3.981
REMARK INTER + INTRA:         -10.932
REMARK INTER:                  -6.812
REMARK INTRA:                  -4.120
REMARK UNBOUND:                -3.704
REMARK SMILES CCCCCCCCCCCCCCCCCCCCCC(=O)[O-]
REMARK SMILES IDX 12 1 11 2 10 3 9 4 8 5 7 6 6 7 5 8 4 9 3 10 2 11 1 12 13 13
REMARK SMILES IDX 14 14 15 15 16 16 17 17 18 18 19 19 20 20 21 21 22 22 23 23
REMARK SMILES IDX 24 24
REMARK H PARENT
REMARK Flexibility Score: inf
ROOT
ATOM      1  C   UNL     1     187.765 175.357 177.179  1.00  0.00     0.000 C 
ENDROOT
BRANCH   1   2
ATOM      2  C   UNL     1     187.069 174.707 175.975  1.00  0.00     0.000 C 
BRANCH   2   3
ATOM      3  C   UNL     1     187.791 173.445 175.469  1.00  0.00     0.000 C 
BRANCH   3   4
ATOM      4  C   UNL     1     188.317 173.531 174.024  1.00  0.00    -0.000 C 
BRANCH   4   5
ATOM      5  C   UNL     1     189.853 173.545 173.890  1.00  0.00    -0.000 C 
BRANCH   5   6
ATOM      6  C   UNL     1     190.597 173.457 175.241  1.00  0.00    -0.000 C 
BRANCH   6   7
ATOM      7  C   UNL     1     191.186 174.811 175.673  1.00  0.00    -0.000 C 
BRANCH   7   8
ATOM      8  C   UNL     1     191.143 175.865 174.555  1.00  0.00    -0.000 C 
BRANCH   8   9
ATOM      9  C   UNL     1     190.273 177.082 174.920  1.00  0.00    -0.000 C 
BRANCH   9  10
ATOM     10  C   UNL     1     189.037 177.229 174.014  1.00  0.00    -0.000 C 
BRANCH  10  11
ATOM     11  C   UNL     1     189.347 177.502 172.529  1.00  0.00    -0.003 C 
ATOM     12  C   UNL     1     188.932 176.351 171.611  1.00  0.00     0.004 C 
ENDBRANCH  10  11
ENDBRANCH   9  10
ENDBRANCH   8   9
ENDBRANCH   7   8
ENDBRANCH   6   7
ENDBRANCH   5   6
ENDBRANCH   4   5
ENDBRANCH   3   4
ENDBRANCH   2   3
ENDBRANCH   1   2
BRANCH   1  13
ATOM     13  C   UNL     1     188.410 174.291 178.080  1.00  0.00     0.000 C 
BRANCH  13  14
ATOM     14  C   UNL     1     189.478 174.874 179.018  1.00  0.00     0.000 C 
BRANCH  14  15
ATOM     15  C   UNL     1     189.896 176.300 178.631  1.00  0.00     0.000 C 
BRANCH  15  16
ATOM     16  C   UNL     1     189.577 177.288 179.761  1.00  0.00     0.000 C 
BRANCH  16  17
ATOM     17  C   UNL     1     189.502 176.570 181.118  1.00  0.00     0.000 C 
BRANCH  17  18
ATOM     18  C   UNL     1     188.091 176.605 181.728  1.00  0.00     0.000 C 
BRANCH  18  19
ATOM     19  C   UNL     1     187.075 177.326 180.822  1.00  0.00     0.000 C 
BRANCH  19  20
ATOM     20  C   UNL     1     185.976 176.384 180.291  1.00  0.00     0.006 C 
BRANCH  20  21
ATOM     21  C   UNL     1     186.130 174.919 180.732  1.00  0.00     0.053 C 
BRANCH  21  22
ATOM     22  C   UNL     1     184.970 174.077 180.297  1.00  0.00     0.041 C 
ATOM     23  O   UNL     1     184.048 173.801 181.111  1.00  0.00    -0.550 OA
ATOM     24  O   UNL     1     184.888 173.625 178.984  1.00  0.00    -0.550 OA
ENDBRANCH  21  22
ENDBRANCH  20  21
ENDBRANCH  19  20
ENDBRANCH  18  19
ENDBRANCH  17  18
ENDBRANCH  16  17
ENDBRANCH  15  16
ENDBRANCH  14  15
ENDBRANCH  13  14
ENDBRANCH   1  13
TORSDOF 20
ENDMDL
MODEL 4
REMARK VINA RESULT:    -3.289      2.444      4.846
REMARK INTER + INTRA:         -10.838
REMARK INTER:                  -6.292
REMARK INTRA:                  -4.547
REMARK UNBOUND:                -3.704
REMARK SMILES CCCCCCCCCCCCCCCCCCCCCC(=O)[O-]
REMARK SMILES IDX 12 1 11 2 10 3 9 4 8 5 7 6 6 7 5 8 4 9 3 10 2 11 1 12 13 13
REMARK SMILES IDX 14 14 15 15 16 16 17 17 18 18 19 19 20 20 21 21 22 22 23 23
REMARK SMILES IDX 24 24
REMARK H PARENT
REMARK Flexibility Score: inf
ROOT
ATOM      1  C   UNL     1     190.144 173.633 174.107  1.00  0.00     0.000 C 
ENDROOT
BRANCH   1   2
ATOM      2  C   UNL     1     190.625 174.268 172.795  1.00  0.00     0.000 C 
BRANCH   2   3
ATOM      3  C   UNL     1     189.478 174.867 171.958  1.00  0.00     0.000 C 
BRANCH   3   4
ATOM      4  C   UNL     1     189.624 176.365 171.632  1.00  0.00    -0.000 C 
BRANCH   4   5
ATOM      5  C   UNL     1     188.871 177.315 172.585  1.00  0.00    -0.000 C 
BRANCH   5   6
ATOM      6  C   UNL     1     187.711 176.640 173.349  1.00  0.00    -0.000 C 
BRANCH   6   7
ATOM      7  C   UNL     1     187.728 176.974 174.851  1.00  0.00    -0.000 C 
BRANCH   7   8
ATOM      8  C   UNL     1     187.414 175.757 175.737  1.00  0.00    -0.000 C 
BRANCH   8   9
ATOM      9  C   UNL     1     186.462 174.757 175.055  1.00  0.00    -0.000 C 
BRANCH   9  10
ATOM     10  C   UNL     1     186.817 173.289 175.359  1.00  0.00    -0.000 C 
BRANCH  10  11
ATOM     11  C   UNL     1     186.724 172.335 174.153  1.00  0.00    -0.003 C 
ATOM     12  C   UNL     1     186.389 173.053 172.845  1.00  0.00     0.004 C 
ENDBRANCH  10  11
ENDBRANCH   9  10
ENDBRANCH   8   9
ENDBRANCH   7   8
ENDBRANCH   6   7
ENDBRANCH   5   6
ENDBRANCH   4   5
ENDBRANCH   3   4
ENDBRANCH   2   3
ENDBRANCH   1   2
BRANCH   1  13
ATOM     13  C   UNL     1     190.769 174.340 175.320  1.00  0.00     0.000 C 
BRANCH  13  14
ATOM     14  C   UNL     1     191.203 175.780 175.009  1.00  0.00     0.000 C 
BRANCH  14  15
ATOM     15  C   UNL     1     191.174 176.691 176.246  1.00  0.00     0.000 C 
BRANCH  15  16
ATOM     16  C   UNL     1     190.914 175.874 177.518  1.00  0.00     0.000 C 
BRANCH  16  17
ATOM     17  C   UNL     1     190.101 176.685 178.539  1.00  0.00     0.000 C 
BRANCH  17  18
ATOM     18  C   UNL     1     189.069 175.828 179.291  1.00  0.00     0.000 C 
BRANCH  18  19
ATOM     19  C   UNL     1     188.977 174.395 178.733  1.00  0.00     0.000 C 
BRANCH  19  20
ATOM     20  C   UNL     1     187.577 173.774 178.912  1.00  0.00     0.006 C 
BRANCH  20  21
ATOM     21  C   UNL     1     186.488 174.777 179.328  1.00  0.00     0.053 C 
BRANCH  21  22
ATOM     22  C   UNL     1     185.182 174.501 178.648  1.00  0.00     0.041 C 
ATOM     23  O   UNL     1     184.410 175.452 178.351  1.00  0.00    -0.550 OA
ATOM     24  O   UNL     1     184.830 173.198 178.313  1.00  0.00    -0.550 OA
ENDBRANCH  21  22
ENDBRANCH  20  21
ENDBRANCH  19  20
ENDBRANCH  18  19
ENDBRANCH  17  18
ENDBRANCH  16  17
ENDBRANCH  15  16
ENDBRANCH  14  15
ENDBRANCH  13  14
ENDBRANCH   1  13
TORSDOF 20
ENDMDL
MODEL 5
REMARK VINA RESULT:    -3.285      1.271      2.734
REMARK INTER + INTRA:         -10.829
REMARK INTER:                  -7.046
REMARK INTRA:                  -3.782
REMARK UNBOUND:                -3.704
REMARK SMILES CCCCCCCCCCCCCCCCCCCCCC(=O)[O-]
REMARK SMILES IDX 12 1 11 2 10 3 9 4 8 5 7 6 6 7 5 8 4 9 3 10 2 11 1 12 13 13
REMARK SMILES IDX 14 14 15 15 16 16 17 17 18 18 19 19 20 20 21 21 22 22 23 23
REMARK SMILES IDX 24 24
REMARK H PARENT
REMARK Flexibility Score: inf
ROOT
ATOM      1  C   UNL     1     188.821 176.352 177.280  1.00  0.00     0.000 C 
ENDROOT
BRANCH   1   2
ATOM      2  C   UNL     1     189.535 175.127 177.871  1.00  0.00     0.000 C 
BRANCH   2   3
ATOM      3  C   UNL     1     190.957 174.930 177.313  1.00  0.00     0.000 C 
BRANCH   3   4
ATOM      4  C   UNL     1     191.036 174.734 175.787  1.00  0.00    -0.000 C 
BRANCH   4   5
ATOM      5  C   UNL     1     190.980 173.267 175.316  1.00  0.00    -0.000 C 
BRANCH   5   6
ATOM      6  C   UNL     1     190.264 173.074 173.962  1.00  0.00    -0.000 C 
BRANCH   6   7
ATOM      7  C   UNL     1     188.772 173.441 174.032  1.00  0.00    -0.000 C 
BRANCH   7   8
ATOM      8  C   UNL     1     188.415 174.660 173.166  1.00  0.00    -0.000 C 
BRANCH   8   9
ATOM      9  C   UNL     1     189.509 174.997 172.136  1.00  0.00    -0.000 C 
BRANCH   9  10
ATOM     10  C   UNL     1     190.164 176.369 172.385  1.00  0.00    -0.000 C 
BRANCH  10  11
ATOM     11  C   UNL     1     189.524 177.201 173.512  1.00  0.00    -0.003 C 
ATOM     12  C   UNL     1     190.538 178.053 174.277  1.00  0.00     0.004 C 
ENDBRANCH  10  11
ENDBRANCH   9  10
ENDBRANCH   8   9
ENDBRANCH   7   8
ENDBRANCH   6   7
ENDBRANCH   5   6
ENDBRANCH   4   5
ENDBRANCH   3   4
ENDBRANCH   2   3
ENDBRANCH   1   2
BRANCH   1  13
ATOM     13  C   UNL     1     187.544 175.934 176.534  1.00  0.00     0.000 C 
BRANCH  13  14
ATOM     14  C   UNL     1     186.974 174.598 177.033  1.00  0.00     0.000 C 
BRANCH  14  15
ATOM     15  C   UNL     1     185.570 174.740 177.639  1.00  0.00     0.000 C 
BRANCH  15  16
ATOM     16  C   UNL     1     185.436 173.892 178.910  1.00  0.00     0.000 C 
BRANCH  16  17
ATOM     17  C   UNL     1     186.504 174.276 179.946  1.00  0.00     0.000 C 
BRANCH  17  18
ATOM     18  C   UNL     1     186.145 175.555 180.720  1.00  0.00     0.000 C 
BRANCH  18  19
ATOM     19  C   UNL     1     187.170 176.684 180.499  1.00  0.00     0.000 C 
BRANCH  19  20
ATOM     20  C   UNL     1     188.180 176.806 181.657  1.00  0.00     0.006 C 
BRANCH  20  21
ATOM     21  C   UNL     1     189.600 176.327 181.313  1.00  0.00     0.053 C 
BRANCH  21  22
ATOM     22  C   UNL     1     190.525 177.469 181.028  1.00  0.00     0.041 C 
ATOM     23  O   UNL     1     190.418 178.116 179.951  1.00  0.00    -0.550 OA
ATOM     24  O   UNL     1     191.484 177.843 181.963  1.00  0.00    -0.550 OA
ENDBRANCH  21  22
ENDBRANCH  20  21
ENDBRANCH  19  20
ENDBRANCH  18  19
ENDBRANCH  17  18
ENDBRANCH  16  17
ENDBRANCH  15  16
ENDBRANCH  14  15
ENDBRANCH  13  14
ENDBRANCH   1  13
TORSDOF 20
ENDMDL
MODEL 6
REMARK VINA RESULT:    -3.275      1.623      2.701
REMARK INTER + INTRA:         -10.808
REMARK INTER:                  -6.673
REMARK INTRA:                  -4.135
REMARK UNBOUND:                -3.704
REMARK SMILES CCCCCCCCCCCCCCCCCCCCCC(=O)[O-]
REMARK SMILES IDX 12 1 11 2 10 3 9 4 8 5 7 6 6 7 5 8 4 9 3 10 2 11 1 12 13 13
REMARK SMILES IDX 14 14 15 15 16 16 17 17 18 18 19 19 20 20 21 21 22 22 23 23
REMARK SMILES IDX 24 24
REMARK H PARENT
REMARK Flexibility Score: inf
ROOT
ATOM      1  C   UNL     1     188.723 176.936 172.337  1.00  0.00     0.000 C 
ENDROOT
BRANCH   1   2
ATOM      2  C   UNL     1     190.053 176.411 171.778  1.00  0.00     0.000 C 
BRANCH   2   3
ATOM      3  C   UNL     1     190.064 174.884 171.578  1.00  0.00     0.000 C 
BRANCH   3   4
ATOM      4  C   UNL     1     190.966 174.105 172.554  1.00  0.00    -0.000 C 
BRANCH   4   5
ATOM      5  C   UNL     1     190.218 173.367 173.682  1.00  0.00    -0.000 C 
BRANCH   5   6
ATOM      6  C   UNL     1     190.600 173.845 175.099  1.00  0.00    -0.000 C 
BRANCH   6   7
ATOM      7  C   UNL     1     191.091 175.303 175.112  1.00  0.00    -0.000 C 
BRANCH   7   8
ATOM      8  C   UNL     1     191.349 175.835 176.532  1.00  0.00    -0.000 C 
BRANCH   8   9
ATOM      9  C   UNL     1     191.432 177.371 176.584  1.00  0.00    -0.000 C 
BRANCH   9  10
ATOM     10  C   UNL     1     191.011 178.040 175.262  1.00  0.00    -0.000 C 
BRANCH  10  11
ATOM     11  C   UNL     1     189.779 178.960 175.362  1.00  0.00    -0.003 C 
ATOM     12  C   UNL     1     189.060 178.854 176.707  1.00  0.00     0.004 C 
ENDBRANCH  10  11
ENDBRANCH   9  10
ENDBRANCH   8   9
ENDBRANCH   7   8
ENDBRANCH   6   7
ENDBRANCH   5   6
ENDBRANCH   4   5
ENDBRANCH   3   4
ENDBRANCH   2   3
ENDBRANCH   1   2
BRANCH   1  13
ATOM     13  C   UNL     1     187.633 175.856 172.261  1.00  0.00     0.000 C 
BRANCH  13  14
ATOM     14  C   UNL     1     186.758 175.804 173.522  1.00  0.00     0.000 C 
BRANCH  14  15
ATOM     15  C   UNL     1     187.563 176.014 174.813  1.00  0.00     0.000 C 
BRANCH  15  16
ATOM     16  C   UNL     1     187.214 174.943 175.854  1.00  0.00     0.000 C 
BRANCH  16  17
ATOM     17  C   UNL     1     187.707 175.348 177.252  1.00  0.00     0.000 C 
BRANCH  17  18
ATOM     18  C   UNL     1     188.161 174.143 178.092  1.00  0.00     0.000 C 
BRANCH  18  19
ATOM     19  C   UNL     1     189.228 174.523 179.137  1.00  0.00     0.000 C 
BRANCH  19  20
ATOM     20  C   UNL     1     189.247 176.032 179.448  1.00  0.00     0.006 C 
BRANCH  20  21
ATOM     21  C   UNL     1     189.189 176.372 180.947  1.00  0.00     0.053 C 
BRANCH  21  22
ATOM     22  C   UNL     1     187.784 176.574 181.423  1.00  0.00     0.041 C 
ATOM     23  O   UNL     1     187.503 177.550 182.169  1.00  0.00    -0.550 OA
ATOM     24  O   UNL     1     186.776 175.705 181.018  1.00  0.00    -0.550 OA
ENDBRANCH  21  22
ENDBRANCH  20  21
ENDBRANCH  19  20
ENDBRANCH  18  19
ENDBRANCH  17  18
ENDBRANCH  16  17
ENDBRANCH  15  16
ENDBRANCH  14  15
ENDBRANCH  13  14
ENDBRANCH   1  13
TORSDOF 20
ENDMDL
MODEL 7
REMARK VINA RESULT:    -3.259      2.750      4.516
REMARK INTER + INTRA:         -10.773
REMARK INTER:                  -6.649
REMARK INTRA:                  -4.125
REMARK UNBOUND:                -3.704
REMARK SMILES CCCCCCCCCCCCCCCCCCCCCC(=O)[O-]
REMARK SMILES IDX 12 1 11 2 10 3 9 4 8 5 7 6 6 7 5 8 4 9 3 10 2 11 1 12 13 13
REMARK SMILES IDX 14 14 15 15 16 16 17 17 18 18 19 19 20 20 21 21 22 22 23 23
REMARK SMILES IDX 24 24
REMARK H PARENT
REMARK Flexibility Score: inf
ROOT
ATOM      1  C   UNL     1     187.492 176.965 175.993  1.00  0.00     0.000 C 
ENDROOT
BRANCH   1   2
ATOM      2  C   UNL     1     187.786 178.019 174.915  1.00  0.00     0.000 C 
BRANCH   2   3
ATOM      3  C   UNL     1     189.113 177.770 174.173  1.00  0.00     0.000 C 
BRANCH   3   4
ATOM      4  C   UNL     1     190.382 177.999 175.015  1.00  0.00    -0.000 C 
BRANCH   4   5
ATOM      5  C   UNL     1     191.345 176.798 175.080  1.00  0.00    -0.000 C 
BRANCH   5   6
ATOM      6  C   UNL     1     191.232 175.978 176.383  1.00  0.00    -0.000 C 
BRANCH   6   7
ATOM      7  C   UNL     1     191.024 174.477 176.114  1.00  0.00    -0.000 C 
BRANCH   7   8
ATOM      8  C   UNL     1     189.629 174.159 175.550  1.00  0.00    -0.000 C 
BRANCH   8   9
ATOM      9  C   UNL     1     189.686 173.540 174.141  1.00  0.00    -0.000 C 
BRANCH   9  10
ATOM     10  C   UNL     1     188.853 174.322 173.108  1.00  0.00    -0.000 C 
BRANCH  10  11
ATOM     11  C   UNL     1     189.666 174.959 171.965  1.00  0.00    -0.003 C 
ATOM     12  C   UNL     1     191.157 174.624 172.031  1.00  0.00     0.004 C 
ENDBRANCH  10  11
ENDBRANCH   9  10
ENDBRANCH   8   9
ENDBRANCH   7   8
ENDBRANCH   6   7
ENDBRANCH   5   6
ENDBRANCH   4   5
ENDBRANCH   3   4
ENDBRANCH   2   3
ENDBRANCH   1   2
BRANCH   1  13
ATOM     13  C   UNL     1     187.228 177.632 177.352  1.00  0.00     0.000 C 
BRANCH  13  14
ATOM     14  C   UNL     1     188.463 177.632 178.264  1.00  0.00     0.000 C 
BRANCH  14  15
ATOM     15  C   UNL     1     188.282 176.752 179.511  1.00  0.00     0.000 C 
BRANCH  15  16
ATOM     16  C   UNL     1     189.461 175.784 179.671  1.00  0.00     0.000 C 
BRANCH  16  17
ATOM     17  C   UNL     1     189.101 174.383 179.153  1.00  0.00     0.000 C 
BRANCH  17  18
ATOM     18  C   UNL     1     187.594 174.089 179.239  1.00  0.00     0.000 C 
BRANCH  18  19
ATOM     19  C   UNL     1     186.987 173.724 177.872  1.00  0.00     0.000 C 
BRANCH  19  20
ATOM     20  C   UNL     1     185.450 173.840 177.852  1.00  0.00     0.006 C 
BRANCH  20  21
ATOM     21  C   UNL     1     184.868 174.749 178.948  1.00  0.00     0.053 C 
BRANCH  21  22
ATOM     22  C   UNL     1     183.974 173.998 179.885  1.00  0.00     0.041 C 
ATOM     23  O   UNL     1     183.009 173.325 179.435  1.00  0.00    -0.550 OA
ATOM     24  O   UNL     1     184.226 174.013 181.253  1.00  0.00    -0.550 OA
ENDBRANCH  21  22
ENDBRANCH  20  21
ENDBRANCH  19  20
ENDBRANCH  18  19
ENDBRANCH  17  18
ENDBRANCH  16  17
ENDBRANCH  15  16
ENDBRANCH  14  15
ENDBRANCH  13  14
ENDBRANCH   1  13
TORSDOF 20
ENDMDL
MODEL 8
REMARK VINA RESULT:    -3.258      1.526      2.828
REMARK INTER + INTRA:         -10.770
REMARK INTER:                  -7.507
REMARK INTRA:                  -3.263
REMARK UNBOUND:                -3.704
REMARK SMILES CCCCCCCCCCCCCCCCCCCCCC(=O)[O-]
REMARK SMILES IDX 12 1 11 2 10 3 9 4 8 5 7 6 6 7 5 8 4 9 3 10 2 11 1 12 13 13
REMARK SMILES IDX 14 14 15 15 16 16 17 17 18 18 19 19 20 20 21 21 22 22 23 23
REMARK SMILES IDX 24 24
REMARK H PARENT
REMARK Flexibility Score: inf
ROOT
ATOM      1  C   UNL     1     186.296 173.375 177.031  1.00  0.00     0.000 C 
ENDROOT
BRANCH   1   2
ATOM      2  C   UNL     1     185.877 174.344 175.916  1.00  0.00     0.000 C 
BRANCH   2   3
ATOM      3  C   UNL     1     186.486 173.989 174.547  1.00  0.00     0.000 C 
BRANCH   3   4
ATOM      4  C   UNL     1     187.985 174.309 174.399  1.00  0.00    -0.000 C 
BRANCH   4   5
ATOM      5  C   UNL     1     188.903 173.078 174.262  1.00  0.00    -0.000 C 
BRANCH   5   6
ATOM      6  C   UNL     1     190.387 173.369 174.574  1.00  0.00    -0.000 C 
BRANCH   6   7
ATOM      7  C   UNL     1     190.573 174.064 175.933  1.00  0.00    -0.000 C 
BRANCH   7   8
ATOM      8  C   UNL     1     191.374 175.372 175.831  1.00  0.00    -0.000 C 
BRANCH   8   9
ATOM      9  C   UNL     1     191.302 176.004 174.428  1.00  0.00    -0.000 C 
BRANCH   9  10
ATOM     10  C   UNL     1     190.465 177.297 174.395  1.00  0.00    -0.000 C 
BRANCH  10  11
ATOM     11  C   UNL     1     190.976 178.425 175.311  1.00  0.00    -0.003 C 
ATOM     12  C   UNL     1     191.066 179.777 174.602  1.00  0.00     0.004 C 
ENDBRANCH  10  11
ENDBRANCH   9  10
ENDBRANCH   8   9
ENDBRANCH   7   8
ENDBRANCH   6   7
ENDBRANCH   5   6
ENDBRANCH   4   5
ENDBRANCH   3   4
ENDBRANCH   2   3
ENDBRANCH   1   2
BRANCH   1  13
ATOM     13  C   UNL     1     186.620 174.137 178.326  1.00  0.00     0.000 C 
BRANCH  13  14
ATOM     14  C   UNL     1     187.988 173.757 178.913  1.00  0.00     0.000 C 
BRANCH  14  15
ATOM     15  C   UNL     1     188.960 174.945 178.973  1.00  0.00     0.000 C 
BRANCH  15  16
ATOM     16  C   UNL     1     188.439 176.119 178.135  1.00  0.00     0.000 C 
BRANCH  16  17
ATOM     17  C   UNL     1     189.274 177.386 178.378  1.00  0.00     0.000 C 
BRANCH  17  18
ATOM     18  C   UNL     1     190.584 177.096 179.129  1.00  0.00     0.000 C 
BRANCH  18  19
ATOM     19  C   UNL     1     191.000 178.254 180.057  1.00  0.00     0.000 C 
BRANCH  19  20
ATOM     20  C   UNL     1     191.051 177.840 181.540  1.00  0.00     0.006 C 
BRANCH  20  21
ATOM     21  C   UNL     1     189.983 176.811 181.950  1.00  0.00     0.053 C 
BRANCH  21  22
ATOM     22  C   UNL     1     188.621 177.426 182.049  1.00  0.00     0.041 C 
ATOM     23  O   UNL     1     187.602 176.763 181.715  1.00  0.00    -0.550 OA
ATOM     24  O   UNL     1     188.471 178.717 182.543  1.00  0.00    -0.550 OA
ENDBRANCH  21  22
ENDBRANCH  20  21
ENDBRANCH  19  20
ENDBRANCH  18  19
ENDBRANCH  17  18
ENDBRANCH  16  17
ENDBRANCH  15  16
ENDBRANCH  14  15
ENDBRANCH  13  14
ENDBRANCH   1  13
TORSDOF 20
ENDMDL
MODEL 9
REMARK VINA RESULT:    -3.206      1.420      3.328
REMARK INTER + INTRA:         -10.658
REMARK INTER:                  -7.078
REMARK INTRA:                  -3.580
REMARK UNBOUND:                -3.704
REMARK SMILES CCCCCCCCCCCCCCCCCCCCCC(=O)[O-]
REMARK SMILES IDX 12 1 11 2 10 3 9 4 8 5 7 6 6 7 5 8 4 9 3 10 2 11 1 12 13 13
REMARK SMILES IDX 14 14 15 15 16 16 17 17 18 18 19 19 20 20 21 21 22 22 23 23
REMARK SMILES IDX 24 24
REMARK H PARENT
REMARK Flexibility Score: inf
ROOT
ATOM      1  C   UNL     1     188.108 175.392 175.193  1.00  0.00     0.000 C 
ENDROOT
BRANCH   1   2
ATOM      2  C   UNL     1     188.972 174.124 175.147  1.00  0.00     0.000 C 
BRANCH   2   3
ATOM      3  C   UNL     1     190.467 174.404 175.392  1.00  0.00     0.000 C 
BRANCH   3   4
ATOM      4  C   UNL     1     191.021 175.653 174.682  1.00  0.00    -0.000 C 
BRANCH   4   5
ATOM      5  C   UNL     1     191.377 176.827 175.614  1.00  0.00    -0.000 C 
BRANCH   5   6
ATOM      6  C   UNL     1     190.678 178.153 175.241  1.00  0.00    -0.000 C 
BRANCH   6   7
ATOM      7  C   UNL     1     190.467 178.296 173.724  1.00  0.00    -0.000 C 
BRANCH   7   8
ATOM      8  C   UNL     1     188.984 178.420 173.336  1.00  0.00    -0.000 C 
BRANCH   8   9
ATOM      9  C   UNL     1     188.651 177.683 172.025  1.00  0.00    -0.000 C 
BRANCH   9  10
ATOM     10  C   UNL     1     189.855 176.920 171.442  1.00  0.00    -0.000 C 
BRANCH  10  11
ATOM     11  C   UNL     1     189.656 175.399 171.302  1.00  0.00    -0.003 C 
ATOM     12  C   UNL     1     188.209 174.962 171.531  1.00  0.00     0.004 C 
ENDBRANCH  10  11
ENDBRANCH   9  10
ENDBRANCH   8   9
ENDBRANCH   7   8
ENDBRANCH   6   7
ENDBRANCH   5   6
ENDBRANCH   4   5
ENDBRANCH   3   4
ENDBRANCH   2   3
ENDBRANCH   1   2
BRANCH   1  13
ATOM     13  C   UNL     1     186.806 175.140 175.971  1.00  0.00     0.000 C 
BRANCH  13  14
ATOM     14  C   UNL     1     186.731 173.722 176.559  1.00  0.00     0.000 C 
BRANCH  14  15
ATOM     15  C   UNL     1     186.118 173.694 177.967  1.00  0.00     0.000 C 
BRANCH  15  16
ATOM     16  C   UNL     1     186.968 174.510 178.949  1.00  0.00     0.000 C 
BRANCH  16  17
ATOM     17  C   UNL     1     188.368 173.896 179.111  1.00  0.00     0.000 C 
BRANCH  17  18
ATOM     18  C   UNL     1     189.493 174.894 178.791  1.00  0.00     0.000 C 
BRANCH  18  19
ATOM     19  C   UNL     1     189.413 176.168 179.653  1.00  0.00     0.000 C 
BRANCH  19  20
ATOM     20  C   UNL     1     190.117 177.374 179.000  1.00  0.00     0.006 C 
BRANCH  20  21
ATOM     21  C   UNL     1     191.310 177.922 179.801  1.00  0.00     0.053 C 
BRANCH  21  22
ATOM     22  C   UNL     1     190.960 178.162 181.237  1.00  0.00     0.041 C 
ATOM     23  O   UNL     1     191.550 177.520 182.148  1.00  0.00    -0.550 OA
ATOM     24  O   UNL     1     190.007 179.117 181.574  1.00  0.00    -0.550 OA
ENDBRANCH  21  22
ENDBRANCH  20  21
ENDBRANCH  19  20
ENDBRANCH  18  19
ENDBRANCH  17  18
ENDBRANCH  16  17
ENDBRANCH  15  16
ENDBRANCH  14  15
ENDBRANCH  13  14
ENDBRANCH   1  13
TORSDOF 20
ENDMDL
