MODEL 1
REMARK VINA RESULT:    -5.084      0.000      0.000
REMARK INTER + INTRA:         -13.409
REMARK INTER:                 -11.028
REMARK INTRA:                  -2.380
REMARK UNBOUND:                -2.380
REMARK SMILES CCCCCCCCCCCCCCCCCCCCCC(=O)[O-]
REMARK SMILES IDX 12 1 11 2 10 3 9 4 8 5 7 6 6 7 5 8 4 9 3 10 2 11 1 12 13 13
REMARK SMILES IDX 14 14 15 15 16 16 17 17 18 18 19 19 20 20 21 21 22 22 23 23
REMARK SMILES IDX 24 24
REMARK H PARENT
REMARK Flexibility Score: inf
ROOT
ATOM      1  C   UNL     1    -131.013 109.663  39.477  1.00  0.00     0.000 C 
ENDROOT
BRANCH   1   2
ATOM      2  C   UNL     1    -129.674 110.299  39.046  1.00  0.00     0.000 C 
BRANCH   2   3
ATOM      3  C   UNL     1    -129.324 111.580  39.823  1.00  0.00     0.000 C 
BRANCH   3   4
ATOM      4  C   UNL     1    -130.218 111.792  41.055  1.00  0.00    -0.000 C 
BRANCH   4   5
ATOM      5  C   UNL     1    -130.026 113.172  41.709  1.00  0.00    -0.000 C 
BRANCH   5   6
ATOM      6  C   UNL     1    -129.597 113.147  43.187  1.00  0.00    -0.000 C 
BRANCH   6   7
ATOM      7  C   UNL     1    -129.334 114.552  43.759  1.00  0.00    -0.000 C 
BRANCH   7   8
ATOM      8  C   UNL     1    -129.633 115.664  42.740  1.00  0.00    -0.000 C 
BRANCH   8   9
ATOM      9  C   UNL     1    -129.686 117.056  43.390  1.00  0.00    -0.000 C 
BRANCH   9  10
ATOM     10  C   UNL     1    -129.341 117.029  44.891  1.00  0.00    -0.000 C 
BRANCH  10  11
ATOM     11  C   UNL     1    -130.442 117.573  45.819  1.00  0.00    -0.003 C 
ATOM     12  C   UNL     1    -130.885 116.566  46.880  1.00  0.00     0.004 C 
ENDBRANCH  10  11
ENDBRANCH   9  10
ENDBRANCH   8   9
ENDBRANCH   7   8
ENDBRANCH   6   7
ENDBRANCH   5   6
ENDBRANCH   4   5
ENDBRANCH   3   4
ENDBRANCH   2   3
ENDBRANCH   1   2
BRANCH   1  13
ATOM     13  C   UNL     1    -131.185 108.241  38.916  1.00  0.00     0.000 C 
BRANCH  13  14
ATOM     14  C   UNL     1    -129.868 107.450  38.889  1.00  0.00     0.000 C 
BRANCH  14  15
ATOM     15  C   UNL     1    -130.058 105.972  39.270  1.00  0.00     0.000 C 
BRANCH  15  16
ATOM     16  C   UNL     1    -129.410 105.622  40.619  1.00  0.00     0.000 C 
BRANCH  16  17
ATOM     17  C   UNL     1    -128.057 106.323  40.825  1.00  0.00     0.000 C 
BRANCH  17  18
ATOM     18  C   UNL     1    -127.987 107.081  42.171  1.00  0.00     0.000 C 
BRANCH  18  19
ATOM     19  C   UNL     1    -128.474 108.538  42.085  1.00  0.00     0.000 C 
BRANCH  19  20
ATOM     20  C   UNL     1    -129.872 108.786  42.685  1.00  0.00     0.006 C 
BRANCH  20  21
ATOM     21  C   UNL     1    -129.848 109.200  44.169  1.00  0.00     0.053 C 
BRANCH  21  22
ATOM     22  C   UNL     1    -130.999 108.636  44.945  1.00  0.00     0.041 C 
ATOM     23  O   UNL     1    -131.842 107.892  44.375  1.00  0.00    -0.550 OA
ATOM     24  O   UNL     1    -131.129 108.910  46.302  1.00  0.00    -0.550 OA
ENDBRANCH  21  22
ENDBRANCH  20  21
ENDBRANCH  19  20
ENDBRANCH  18  19
ENDBRANCH  17  18
ENDBRANCH  16  17
ENDBRANCH  15  16
ENDBRANCH  14  15
ENDBRANCH  13  14
ENDBRANCH   1  13
TORSDOF 20
ENDMDL
MODEL 2
REMARK VINA RESULT:    -4.904      2.598      7.924
REMARK INTER + INTRA:         -13.018
REMARK INTER:                 -10.944
REMARK INTRA:                  -2.074
REMARK UNBOUND:                -2.380
REMARK SMILES CCCCCCCCCCCCCCCCCCCCCC(=O)[O-]
REMARK SMILES IDX 12 1 11 2 10 3 9 4 8 5 7 6 6 7 5 8 4 9 3 10 2 11 1 12 13 13
REMARK SMILES IDX 14 14 15 15 16 16 17 17 18 18 19 19 20 20 21 21 22 22 23 23
REMARK SMILES IDX 24 24
REMARK H PARENT
REMARK Flexibility Score: inf
ROOT
ATOM      1  C   UNL     1    -129.720 108.238  42.803  1.00  0.00     0.000 C 
ENDROOT
BRANCH   1   2
ATOM      2  C   UNL     1    -128.262 108.089  42.319  1.00  0.00     0.000 C 
BRANCH   2   3
ATOM      3  C   UNL     1    -128.014 106.810  41.501  1.00  0.00     0.000 C 
BRANCH   3   4
ATOM      4  C   UNL     1    -129.302 106.017  41.230  1.00  0.00    -0.000 C 
BRANCH   4   5
ATOM      5  C   UNL     1    -129.332 105.373  39.833  1.00  0.00    -0.000 C 
BRANCH   5   6
ATOM      6  C   UNL     1    -130.119 106.152  38.764  1.00  0.00    -0.000 C 
BRANCH   6   7
ATOM      7  C   UNL     1    -129.922 107.675  38.865  1.00  0.00    -0.000 C 
BRANCH   7   8
ATOM      8  C   UNL     1    -131.257 108.440  38.841  1.00  0.00    -0.000 C 
BRANCH   8   9
ATOM      9  C   UNL     1    -131.164 109.802  39.550  1.00  0.00    -0.000 C 
BRANCH   9  10
ATOM     10  C   UNL     1    -129.713 110.224  39.846  1.00  0.00    -0.000 C 
BRANCH  10  11
ATOM     11  C   UNL     1    -129.346 111.647  39.388  1.00  0.00    -0.003 C 
ATOM     12  C   UNL     1    -128.430 111.666  38.166  1.00  0.00     0.004 C 
ENDBRANCH  10  11
ENDBRANCH   9  10
ENDBRANCH   8   9
ENDBRANCH   7   8
ENDBRANCH   6   7
ENDBRANCH   5   6
ENDBRANCH   4   5
ENDBRANCH   3   4
ENDBRANCH   2   3
ENDBRANCH   1   2
BRANCH   1  13
ATOM     13  C   UNL     1    -129.935 109.533  43.605  1.00  0.00     0.000 C 
BRANCH  13  14
ATOM     14  C   UNL     1    -128.977 110.658  43.182  1.00  0.00     0.000 C 
BRANCH  14  15
ATOM     15  C   UNL     1    -129.263 111.982  43.911  1.00  0.00     0.000 C 
BRANCH  15  16
ATOM     16  C   UNL     1    -129.712 113.098  42.955  1.00  0.00     0.000 C 
BRANCH  16  17
ATOM     17  C   UNL     1    -129.584 114.499  43.577  1.00  0.00     0.000 C 
BRANCH  17  18
ATOM     18  C   UNL     1    -129.702 115.624  42.523  1.00  0.00     0.000 C 
BRANCH  18  19
ATOM     19  C   UNL     1    -129.304 117.012  43.054  1.00  0.00     0.000 C 
BRANCH  19  20
ATOM     20  C   UNL     1    -129.193 117.106  44.589  1.00  0.00     0.006 C 
BRANCH  20  21
ATOM     21  C   UNL     1    -130.163 118.122  45.221  1.00  0.00     0.053 C 
BRANCH  21  22
ATOM     22  C   UNL     1    -130.760 117.631  46.506  1.00  0.00     0.041 C 
ATOM     23  O   UNL     1    -131.362 118.431  47.270  1.00  0.00    -0.550 OA
ATOM     24  O   UNL     1    -130.673 116.286  46.848  1.00  0.00    -0.550 OA
ENDBRANCH  21  22
ENDBRANCH  20  21
ENDBRANCH  19  20
ENDBRANCH  18  19
ENDBRANCH  17  18
ENDBRANCH  16  17
ENDBRANCH  15  16
ENDBRANCH  14  15
ENDBRANCH  13  14
ENDBRANCH   1  13
TORSDOF 20
ENDMDL
MODEL 3
REMARK VINA RESULT:    -4.836      0.737      1.662
REMARK INTER + INTRA:         -12.870
REMARK INTER:                 -11.118
REMARK INTRA:                  -1.752
REMARK UNBOUND:                -2.380
REMARK SMILES CCCCCCCCCCCCCCCCCCCCCC(=O)[O-]
REMARK SMILES IDX 12 1 11 2 10 3 9 4 8 5 7 6 6 7 5 8 4 9 3 10 2 11 1 12 13 13
REMARK SMILES IDX 14 14 15 15 16 16 17 17 18 18 19 19 20 20 21 21 22 22 23 23
REMARK SMILES IDX 24 24
REMARK H PARENT
REMARK Flexibility Score: inf
ROOT
ATOM      1  C   UNL     1    -130.189 110.522  39.515  1.00  0.00     0.000 C 
ENDROOT
BRANCH   1   2
ATOM      2  C   UNL     1    -129.740 110.953  40.928  1.00  0.00     0.000 C 
BRANCH   2   3
ATOM      3  C   UNL     1    -129.993 112.440  41.226  1.00  0.00     0.000 C 
BRANCH   3   4
ATOM      4  C   UNL     1    -129.622 112.830  42.666  1.00  0.00    -0.000 C 
BRANCH   4   5
ATOM      5  C   UNL     1    -130.116 114.235  43.057  1.00  0.00    -0.000 C 
BRANCH   5   6
ATOM      6  C   UNL     1    -129.618 115.382  42.160  1.00  0.00    -0.000 C 
BRANCH   6   7
ATOM      7  C   UNL     1    -130.135 116.761  42.607  1.00  0.00    -0.000 C 
BRANCH   7   8
ATOM      8  C   UNL     1    -129.076 117.558  43.387  1.00  0.00    -0.000 C 
BRANCH   8   9
ATOM      9  C   UNL     1    -129.556 117.949  44.795  1.00  0.00    -0.000 C 
BRANCH   9  10
ATOM     10  C   UNL     1    -130.036 116.740  45.620  1.00  0.00    -0.000 C 
BRANCH  10  11
ATOM     11  C   UNL     1    -130.871 117.095  46.863  1.00  0.00    -0.003 C 
ATOM     12  C   UNL     1    -131.039 118.600  47.063  1.00  0.00     0.004 C 
ENDBRANCH  10  11
ENDBRANCH   9  10
ENDBRANCH   8   9
ENDBRANCH   7   8
ENDBRANCH   6   7
ENDBRANCH   5   6
ENDBRANCH   4   5
ENDBRANCH   3   4
ENDBRANCH   2   3
ENDBRANCH   1   2
BRANCH   1  13
ATOM     13  C   UNL     1    -131.408 109.584  39.555  1.00  0.00     0.000 C 
BRANCH  13  14
ATOM     14  C   UNL     1    -131.175 108.278  38.780  1.00  0.00     0.000 C 
BRANCH  14  15
ATOM     15  C   UNL     1    -129.757 107.716  38.980  1.00  0.00     0.000 C 
BRANCH  15  16
ATOM     16  C   UNL     1    -129.762 106.265  39.484  1.00  0.00     0.000 C 
BRANCH  16  17
ATOM     17  C   UNL     1    -129.533 106.165  41.002  1.00  0.00     0.000 C 
BRANCH  17  18
ATOM     18  C   UNL     1    -128.214 106.841  41.443  1.00  0.00     0.000 C 
BRANCH  18  19
ATOM     19  C   UNL     1    -128.423 108.112  42.285  1.00  0.00     0.000 C 
BRANCH  19  20
ATOM     20  C   UNL     1    -129.841 108.271  42.868  1.00  0.00     0.006 C 
BRANCH  20  21
ATOM     21  C   UNL     1    -129.871 108.935  44.259  1.00  0.00     0.053 C 
BRANCH  21  22
ATOM     22  C   UNL     1    -131.161 108.699  44.984  1.00  0.00     0.041 C 
ATOM     23  O   UNL     1    -131.292 109.073  46.180  1.00  0.00    -0.550 OA
ATOM     24  O   UNL     1    -132.229 108.090  44.333  1.00  0.00    -0.550 OA
ENDBRANCH  21  22
ENDBRANCH  20  21
ENDBRANCH  19  20
ENDBRANCH  18  19
ENDBRANCH  17  18
ENDBRANCH  16  17
ENDBRANCH  15  16
ENDBRANCH  14  15
ENDBRANCH  13  14
ENDBRANCH   1  13
TORSDOF 20
ENDMDL
MODEL 4
REMARK VINA RESULT:    -4.790      2.544      7.646
REMARK INTER + INTRA:         -12.772
REMARK INTER:                 -10.681
REMARK INTRA:                  -2.091
REMARK UNBOUND:                -2.380
REMARK SMILES CCCCCCCCCCCCCCCCCCCCCC(=O)[O-]
REMARK SMILES IDX 12 1 11 2 10 3 9 4 8 5 7 6 6 7 5 8 4 9 3 10 2 11 1 12 13 13
REMARK SMILES IDX 14 14 15 15 16 16 17 17 18 18 19 19 20 20 21 21 22 22 23 23
REMARK SMILES IDX 24 24
REMARK H PARENT
REMARK Flexibility Score: inf
ROOT
ATOM      1  C   UNL     1    -129.213 110.918  38.645  1.00  0.00     0.000 C 
ENDROOT
BRANCH   1   2
ATOM      2  C   UNL     1    -129.527 109.632  39.438  1.00  0.00     0.000 C 
BRANCH   2   3
ATOM      3  C   UNL     1    -130.918 109.049  39.139  1.00  0.00     0.000 C 
BRANCH   3   4
ATOM      4  C   UNL     1    -130.874 107.553  38.786  1.00  0.00    -0.000 C 
BRANCH   4   5
ATOM      5  C   UNL     1    -129.492 106.919  39.022  1.00  0.00    -0.000 C 
BRANCH   5   6
ATOM      6  C   UNL     1    -129.437 105.848  40.125  1.00  0.00    -0.000 C 
BRANCH   6   7
ATOM      7  C   UNL     1    -129.376 106.448  41.541  1.00  0.00    -0.000 C 
BRANCH   7   8
ATOM      8  C   UNL     1    -128.077 107.234  41.788  1.00  0.00    -0.000 C 
BRANCH   8   9
ATOM      9  C   UNL     1    -128.309 108.496  42.636  1.00  0.00    -0.000 C 
BRANCH   9  10
ATOM     10  C   UNL     1    -129.802 108.794  42.870  1.00  0.00    -0.000 C 
BRANCH  10  11
ATOM     11  C   UNL     1    -130.281 108.598  44.319  1.00  0.00    -0.003 C 
ATOM     12  C   UNL     1    -131.764 108.244  44.417  1.00  0.00     0.004 C 
ENDBRANCH  10  11
ENDBRANCH   9  10
ENDBRANCH   8   9
ENDBRANCH   7   8
ENDBRANCH   6   7
ENDBRANCH   5   6
ENDBRANCH   4   5
ENDBRANCH   3   4
ENDBRANCH   2   3
ENDBRANCH   1   2
BRANCH   1  13
ATOM     13  C   UNL     1    -129.358 112.182  39.511  1.00  0.00     0.000 C 
BRANCH  13  14
ATOM     14  C   UNL     1    -129.747 111.864  40.963  1.00  0.00     0.000 C 
BRANCH  14  15
ATOM     15  C   UNL     1    -130.136 113.122  41.760  1.00  0.00     0.000 C 
BRANCH  15  16
ATOM     16  C   UNL     1    -129.539 113.132  43.175  1.00  0.00     0.000 C 
BRANCH  16  17
ATOM     17  C   UNL     1    -129.723 114.484  43.886  1.00  0.00     0.000 C 
BRANCH  17  18
ATOM     18  C   UNL     1    -129.989 115.639  42.892  1.00  0.00     0.000 C 
BRANCH  18  19
ATOM     19  C   UNL     1    -129.667 117.031  43.464  1.00  0.00     0.000 C 
BRANCH  19  20
ATOM     20  C   UNL     1    -129.394 117.056  44.981  1.00  0.00     0.006 C 
BRANCH  20  21
ATOM     21  C   UNL     1    -130.202 118.125  45.741  1.00  0.00     0.053 C 
BRANCH  21  22
ATOM     22  C   UNL     1    -131.200 117.530  46.688  1.00  0.00     0.041 C 
ATOM     23  O   UNL     1    -131.062 116.344  47.089  1.00  0.00    -0.550 OA
ATOM     24  O   UNL     1    -132.269 118.293  47.148  1.00  0.00    -0.550 OA
ENDBRANCH  21  22
ENDBRANCH  20  21
ENDBRANCH  19  20
ENDBRANCH  18  19
ENDBRANCH  17  18
ENDBRANCH  16  17
ENDBRANCH  15  16
ENDBRANCH  14  15
ENDBRANCH  13  14
ENDBRANCH   1  13
TORSDOF 20
ENDMDL
MODEL 5
REMARK VINA RESULT:    -4.646      1.027      2.493
REMARK INTER + INTRA:         -12.459
REMARK INTER:                 -10.025
REMARK INTRA:                  -2.434
REMARK UNBOUND:                -2.380
REMARK SMILES CCCCCCCCCCCCCCCCCCCCCC(=O)[O-]
REMARK SMILES IDX 12 1 11 2 10 3 9 4 8 5 7 6 6 7 5 8 4 9 3 10 2 11 1 12 13 13
REMARK SMILES IDX 14 14 15 15 16 16 17 17 18 18 19 19 20 20 21 21 22 22 23 23
REMARK SMILES IDX 24 24
REMARK H PARENT
REMARK Flexibility Score: inf
ROOT
ATOM      1  C   UNL     1    -129.532 111.267  40.799  1.00  0.00     0.000 C 
ENDROOT
BRANCH   1   2
ATOM      2  C   UNL     1    -130.077 112.711  40.822  1.00  0.00     0.000 C 
BRANCH   2   3
ATOM      3  C   UNL     1    -130.089 113.341  42.225  1.00  0.00     0.000 C 
BRANCH   3   4
ATOM      4  C   UNL     1    -129.325 112.501  43.262  1.00  0.00    -0.000 C 
BRANCH   4   5
ATOM      5  C   UNL     1    -129.316 113.136  44.664  1.00  0.00    -0.000 C 
BRANCH   5   6
ATOM      6  C   UNL     1    -129.399 114.672  44.693  1.00  0.00    -0.000 C 
BRANCH   6   7
ATOM      7  C   UNL     1    -130.172 115.209  45.911  1.00  0.00    -0.000 C 
BRANCH   7   8
ATOM      8  C   UNL     1    -130.115 116.743  46.010  1.00  0.00    -0.000 C 
BRANCH   8   9
ATOM      9  C   UNL     1    -130.216 117.423  44.635  1.00  0.00    -0.000 C 
BRANCH   9  10
ATOM     10  C   UNL     1    -129.137 118.501  44.420  1.00  0.00    -0.000 C 
BRANCH  10  11
ATOM     11  C   UNL     1    -128.444 118.460  43.046  1.00  0.00    -0.003 C 
ATOM     12  C   UNL     1    -128.772 117.200  42.247  1.00  0.00     0.004 C 
ENDBRANCH  10  11
ENDBRANCH   9  10
ENDBRANCH   8   9
ENDBRANCH   7   8
ENDBRANCH   6   7
ENDBRANCH   5   6
ENDBRANCH   4   5
ENDBRANCH   3   4
ENDBRANCH   2   3
ENDBRANCH   1   2
BRANCH   1  13
ATOM     13  C   UNL     1    -129.818 110.560  39.462  1.00  0.00     0.000 C 
BRANCH  13  14
ATOM     14  C   UNL     1    -131.218 109.928  39.414  1.00  0.00     0.000 C 
BRANCH  14  15
ATOM     15  C   UNL     1    -131.178 108.433  39.054  1.00  0.00     0.000 C 
BRANCH  15  16
ATOM     16  C   UNL     1    -129.764 107.840  39.147  1.00  0.00     0.000 C 
BRANCH  16  17
ATOM     17  C   UNL     1    -129.746 106.453  39.812  1.00  0.00     0.000 C 
BRANCH  17  18
ATOM     18  C   UNL     1    -128.865 106.421  41.082  1.00  0.00     0.000 C 
BRANCH  18  19
ATOM     19  C   UNL     1    -128.410 107.814  41.552  1.00  0.00     0.000 C 
BRANCH  19  20
ATOM     20  C   UNL     1    -128.967 108.245  42.923  1.00  0.00     0.006 C 
BRANCH  20  21
ATOM     21  C   UNL     1    -130.467 108.596  42.903  1.00  0.00     0.053 C 
BRANCH  21  22
ATOM     22  C   UNL     1    -131.102 108.496  44.257  1.00  0.00     0.041 C 
ATOM     23  O   UNL     1    -132.225 107.938  44.388  1.00  0.00    -0.550 OA
ATOM     24  O   UNL     1    -130.446 108.994  45.377  1.00  0.00    -0.550 OA
ENDBRANCH  21  22
ENDBRANCH  20  21
ENDBRANCH  19  20
ENDBRANCH  18  19
ENDBRANCH  17  18
ENDBRANCH  16  17
ENDBRANCH  15  16
ENDBRANCH  14  15
ENDBRANCH  13  14
ENDBRANCH   1  13
TORSDOF 20
ENDMDL
MODEL 6
REMARK VINA RESULT:    -4.530      2.141      3.905
REMARK INTER + INTRA:         -12.207
REMARK INTER:                 -10.616
REMARK INTRA:                  -1.591
REMARK UNBOUND:                -2.380
REMARK SMILES CCCCCCCCCCCCCCCCCCCCCC(=O)[O-]
REMARK SMILES IDX 12 1 11 2 10 3 9 4 8 5 7 6 6 7 5 8 4 9 3 10 2 11 1 12 13 13
REMARK SMILES IDX 14 14 15 15 16 16 17 17 18 18 19 19 20 20 21 21 22 22 23 23
REMARK SMILES IDX 24 24
REMARK H PARENT
REMARK Flexibility Score: inf
ROOT
ATOM      1  C   UNL     1    -130.107 109.824  44.676  1.00  0.00     0.000 C 
ENDROOT
BRANCH   1   2
ATOM      2  C   UNL     1    -129.499 110.992  43.869  1.00  0.00     0.000 C 
BRANCH   2   3
ATOM      3  C   UNL     1    -129.388 112.300  44.670  1.00  0.00     0.000 C 
BRANCH   3   4
ATOM      4  C   UNL     1    -128.934 113.489  43.809  1.00  0.00    -0.000 C 
BRANCH   4   5
ATOM      5  C   UNL     1    -129.882 113.777  42.630  1.00  0.00    -0.000 C 
BRANCH   5   6
ATOM      6  C   UNL     1    -129.690 115.143  41.948  1.00  0.00    -0.000 C 
BRANCH   6   7
ATOM      7  C   UNL     1    -130.306 116.305  42.746  1.00  0.00    -0.000 C 
BRANCH   7   8
ATOM      8  C   UNL     1    -129.244 117.298  43.248  1.00  0.00    -0.000 C 
BRANCH   8   9
ATOM      9  C   UNL     1    -129.371 117.581  44.754  1.00  0.00    -0.000 C 
BRANCH   9  10
ATOM     10  C   UNL     1    -130.130 116.473  45.508  1.00  0.00    -0.000 C 
BRANCH  10  11
ATOM     11  C   UNL     1    -130.649 116.876  46.900  1.00  0.00    -0.003 C 
ATOM     12  C   UNL     1    -131.224 118.291  46.939  1.00  0.00     0.004 C 
ENDBRANCH  10  11
ENDBRANCH   9  10
ENDBRANCH   8   9
ENDBRANCH   7   8
ENDBRANCH   6   7
ENDBRANCH   5   6
ENDBRANCH   4   5
ENDBRANCH   3   4
ENDBRANCH   2   3
ENDBRANCH   1   2
BRANCH   1  13
ATOM     13  C   UNL     1    -130.187 108.529  43.850  1.00  0.00     0.000 C 
BRANCH  13  14
ATOM     14  C   UNL     1    -129.605 108.690  42.436  1.00  0.00     0.000 C 
BRANCH  14  15
ATOM     15  C   UNL     1    -128.128 108.269  42.354  1.00  0.00     0.000 C 
BRANCH  15  16
ATOM     16  C   UNL     1    -127.945 106.868  41.750  1.00  0.00     0.000 C 
BRANCH  16  17
ATOM     17  C   UNL     1    -129.270 106.258  41.260  1.00  0.00     0.000 C 
BRANCH  17  18
ATOM     18  C   UNL     1    -129.074 105.336  40.034  1.00  0.00     0.000 C 
BRANCH  18  19
ATOM     19  C   UNL     1    -129.511 105.976  38.705  1.00  0.00     0.000 C 
BRANCH  19  20
ATOM     20  C   UNL     1    -129.683 107.508  38.754  1.00  0.00     0.006 C 
BRANCH  20  21
ATOM     21  C   UNL     1    -131.153 107.967  38.781  1.00  0.00     0.053 C 
BRANCH  21  22
ATOM     22  C   UNL     1    -131.304 109.397  39.204  1.00  0.00     0.041 C 
ATOM     23  O   UNL     1    -132.449 109.873  39.428  1.00  0.00    -0.550 OA
ATOM     24  O   UNL     1    -130.180 110.199  39.374  1.00  0.00    -0.550 OA
ENDBRANCH  21  22
ENDBRANCH  20  21
ENDBRANCH  19  20
ENDBRANCH  18  19
ENDBRANCH  17  18
ENDBRANCH  16  17
ENDBRANCH  15  16
ENDBRANCH  14  15
ENDBRANCH  13  14
ENDBRANCH   1  13
TORSDOF 20
ENDMDL
MODEL 7
REMARK VINA RESULT:    -4.460      5.072      7.266
REMARK INTER + INTRA:         -12.056
REMARK INTER:                 -10.790
REMARK INTRA:                  -1.266
REMARK UNBOUND:                -2.380
REMARK SMILES CCCCCCCCCCCCCCCCCCCCCC(=O)[O-]
REMARK SMILES IDX 12 1 11 2 10 3 9 4 8 5 7 6 6 7 5 8 4 9 3 10 2 11 1 12 13 13
REMARK SMILES IDX 14 14 15 15 16 16 17 17 18 18 19 19 20 20 21 21 22 22 23 23
REMARK SMILES IDX 24 24
REMARK H PARENT
REMARK Flexibility Score: inf
ROOT
ATOM      1  C   UNL     1    -130.087 109.406  39.496  1.00  0.00     0.000 C 
ENDROOT
BRANCH   1   2
ATOM      2  C   UNL     1    -130.147 108.937  40.966  1.00  0.00     0.000 C 
BRANCH   2   3
ATOM      3  C   UNL     1    -129.011 109.498  41.837  1.00  0.00     0.000 C 
BRANCH   3   4
ATOM      4  C   UNL     1    -129.468 109.843  43.263  1.00  0.00    -0.000 C 
BRANCH   4   5
ATOM      5  C   UNL     1    -129.482 111.356  43.542  1.00  0.00    -0.000 C 
BRANCH   5   6
ATOM      6  C   UNL     1    -129.498 112.257  42.295  1.00  0.00    -0.000 C 
BRANCH   6   7
ATOM      7  C   UNL     1    -130.259 113.577  42.517  1.00  0.00    -0.000 C 
BRANCH   7   8
ATOM      8  C   UNL     1    -129.399 114.635  43.229  1.00  0.00    -0.000 C 
BRANCH   8   9
ATOM      9  C   UNL     1    -129.728 116.065  42.767  1.00  0.00    -0.000 C 
BRANCH   9  10
ATOM     10  C   UNL     1    -129.924 117.042  43.941  1.00  0.00    -0.000 C 
BRANCH  10  11
ATOM     11  C   UNL     1    -129.671 116.439  45.334  1.00  0.00    -0.003 C 
ATOM     12  C   UNL     1    -130.590 117.012  46.411  1.00  0.00     0.004 C 
ENDBRANCH  10  11
ENDBRANCH   9  10
ENDBRANCH   8   9
ENDBRANCH   7   8
ENDBRANCH   6   7
ENDBRANCH   5   6
ENDBRANCH   4   5
ENDBRANCH   3   4
ENDBRANCH   2   3
ENDBRANCH   1   2
BRANCH   1  13
ATOM     13  C   UNL     1    -128.772 110.139  39.175  1.00  0.00     0.000 C 
BRANCH  13  14
ATOM     14  C   UNL     1    -128.991 111.617  38.815  1.00  0.00     0.000 C 
BRANCH  14  15
ATOM     15  C   UNL     1    -127.966 112.133  37.791  1.00  0.00     0.000 C 
BRANCH  15  16
ATOM     16  C   UNL     1    -128.408 113.444  37.122  1.00  0.00     0.000 C 
BRANCH  16  17
ATOM     17  C   UNL     1    -128.713 113.272  35.624  1.00  0.00     0.000 C 
BRANCH  17  18
ATOM     18  C   UNL     1    -129.570 114.429  35.062  1.00  0.00     0.000 C 
BRANCH  18  19
ATOM     19  C   UNL     1    -130.508 114.003  33.919  1.00  0.00     0.000 C 
BRANCH  19  20
ATOM     20  C   UNL     1    -131.823 113.340  34.378  1.00  0.00     0.006 C 
BRANCH  20  21
ATOM     21  C   UNL     1    -132.721 112.871  33.217  1.00  0.00     0.053 C 
BRANCH  21  22
ATOM     22  C   UNL     1    -134.052 113.559  33.201  1.00  0.00     0.041 C 
ATOM     23  O   UNL     1    -134.305 114.466  34.038  1.00  0.00    -0.550 OA
ATOM     24  O   UNL     1    -135.004 113.218  32.246  1.00  0.00    -0.550 OA
ENDBRANCH  21  22
ENDBRANCH  20  21
ENDBRANCH  19  20
ENDBRANCH  18  19
ENDBRANCH  17  18
ENDBRANCH  16  17
ENDBRANCH  15  16
ENDBRANCH  14  15
ENDBRANCH  13  14
ENDBRANCH   1  13
TORSDOF 20
ENDMDL
MODEL 8
REMARK VINA RESULT:    -4.450      2.735      8.589
REMARK INTER + INTRA:         -12.033
REMARK INTER:                 -10.268
REMARK INTRA:                  -1.765
REMARK UNBOUND:                -2.380
REMARK SMILES CCCCCCCCCCCCCCCCCCCCCC(=O)[O-]
REMARK SMILES IDX 12 1 11 2 10 3 9 4 8 5 7 6 6 7 5 8 4 9 3 10 2 11 1 12 13 13
REMARK SMILES IDX 14 14 15 15 16 16 17 17 18 18 19 19 20 20 21 21 22 22 23 23
REMARK SMILES IDX 24 24
REMARK H PARENT
REMARK Flexibility Score: inf
ROOT
ATOM      1  C   UNL     1    -129.377 111.815  44.252  1.00  0.00     0.000 C 
ENDROOT
BRANCH   1   2
ATOM      2  C   UNL     1    -129.296 110.641  43.253  1.00  0.00     0.000 C 
BRANCH   2   3
ATOM      3  C   UNL     1    -129.944 109.346  43.773  1.00  0.00     0.000 C 
BRANCH   3   4
ATOM      4  C   UNL     1    -129.914 108.209  42.739  1.00  0.00    -0.000 C 
BRANCH   4   5
ATOM      5  C   UNL     1    -128.489 107.833  42.297  1.00  0.00    -0.000 C 
BRANCH   5   6
ATOM      6  C   UNL     1    -128.399 106.724  41.233  1.00  0.00    -0.000 C 
BRANCH   6   7
ATOM      7  C   UNL     1    -129.701 106.557  40.429  1.00  0.00    -0.000 C 
BRANCH   7   8
ATOM      8  C   UNL     1    -129.710 107.411  39.149  1.00  0.00    -0.000 C 
BRANCH   8   9
ATOM      9  C   UNL     1    -130.978 108.274  39.030  1.00  0.00    -0.000 C 
BRANCH   9  10
ATOM     10  C   UNL     1    -130.751 109.732  39.469  1.00  0.00    -0.000 C 
BRANCH  10  11
ATOM     11  C   UNL     1    -129.275 110.153  39.583  1.00  0.00    -0.003 C 
ATOM     12  C   UNL     1    -128.934 111.378  38.736  1.00  0.00     0.004 C 
ENDBRANCH  10  11
ENDBRANCH   9  10
ENDBRANCH   8   9
ENDBRANCH   7   8
ENDBRANCH   6   7
ENDBRANCH   5   6
ENDBRANCH   4   5
ENDBRANCH   3   4
ENDBRANCH   2   3
ENDBRANCH   1   2
BRANCH   1  13
ATOM     13  C   UNL     1    -129.181 113.177  43.563  1.00  0.00     0.000 C 
BRANCH  13  14
ATOM     14  C   UNL     1    -130.023 113.320  42.285  1.00  0.00     0.000 C 
BRANCH  14  15
ATOM     15  C   UNL     1    -129.989 114.748  41.713  1.00  0.00     0.000 C 
BRANCH  15  16
ATOM     16  C   UNL     1    -129.619 115.799  42.770  1.00  0.00     0.000 C 
BRANCH  16  17
ATOM     17  C   UNL     1    -128.601 116.829  42.250  1.00  0.00     0.000 C 
BRANCH  17  18
ATOM     18  C   UNL     1    -128.991 118.279  42.621  1.00  0.00     0.000 C 
BRANCH  18  19
ATOM     19  C   UNL     1    -128.375 118.763  43.946  1.00  0.00     0.000 C 
BRANCH  19  20
ATOM     20  C   UNL     1    -129.370 118.864  45.119  1.00  0.00     0.006 C 
BRANCH  20  21
ATOM     21  C   UNL     1    -130.223 117.597  45.321  1.00  0.00     0.053 C 
BRANCH  21  22
ATOM     22  C   UNL     1    -130.897 117.562  46.659  1.00  0.00     0.041 C 
ATOM     23  O   UNL     1    -131.266 118.634  47.210  1.00  0.00    -0.550 OA
ATOM     24  O   UNL     1    -131.142 116.345  47.288  1.00  0.00    -0.550 OA
ENDBRANCH  21  22
ENDBRANCH  20  21
ENDBRANCH  19  20
ENDBRANCH  18  19
ENDBRANCH  17  18
ENDBRANCH  16  17
ENDBRANCH  15  16
ENDBRANCH  14  15
ENDBRANCH  13  14
ENDBRANCH   1  13
TORSDOF 20
ENDMDL
MODEL 9
REMARK VINA RESULT:    -4.412      2.997      7.813
REMARK INTER + INTRA:         -11.951
REMARK INTER:                 -10.020
REMARK INTRA:                  -1.931
REMARK UNBOUND:                -2.380
REMARK SMILES CCCCCCCCCCCCCCCCCCCCCC(=O)[O-]
REMARK SMILES IDX 12 1 11 2 10 3 9 4 8 5 7 6 6 7 5 8 4 9 3 10 2 11 1 12 13 13
REMARK SMILES IDX 14 14 15 15 16 16 17 17 18 18 19 19 20 20 21 21 22 22 23 23
REMARK SMILES IDX 24 24
REMARK H PARENT
REMARK Flexibility Score: inf
ROOT
ATOM      1  C   UNL     1    -129.774 112.019  40.112  1.00  0.00     0.000 C 
ENDROOT
BRANCH   1   2
ATOM      2  C   UNL     1    -129.774 110.478  40.028  1.00  0.00     0.000 C 
BRANCH   2   3
ATOM      3  C   UNL     1    -131.162 109.878  39.745  1.00  0.00     0.000 C 
BRANCH   3   4
ATOM      4  C   UNL     1    -131.091 108.552  38.971  1.00  0.00    -0.000 C 
BRANCH   4   5
ATOM      5  C   UNL     1    -129.744 107.826  39.141  1.00  0.00    -0.000 C 
BRANCH   5   6
ATOM      6  C   UNL     1    -129.748 106.654  40.138  1.00  0.00    -0.000 C 
BRANCH   6   7
ATOM      7  C   UNL     1    -128.513 106.644  41.058  1.00  0.00    -0.000 C 
BRANCH   7   8
ATOM      8  C   UNL     1    -128.592 107.721  42.153  1.00  0.00    -0.000 C 
BRANCH   8   9
ATOM      9  C   UNL     1    -130.029 107.945  42.653  1.00  0.00    -0.000 C 
BRANCH   9  10
ATOM     10  C   UNL     1    -130.085 108.717  43.985  1.00  0.00    -0.000 C 
BRANCH  10  11
ATOM     11  C   UNL     1    -131.347 108.461  44.828  1.00  0.00    -0.003 C 
ATOM     12  C   UNL     1    -131.204 108.925  46.277  1.00  0.00     0.004 C 
ENDBRANCH  10  11
ENDBRANCH   9  10
ENDBRANCH   8   9
ENDBRANCH   7   8
ENDBRANCH   6   7
ENDBRANCH   5   6
ENDBRANCH   4   5
ENDBRANCH   3   4
ENDBRANCH   2   3
ENDBRANCH   1   2
BRANCH   1  13
ATOM     13  C   UNL     1    -130.044 112.521  41.542  1.00  0.00     0.000 C 
BRANCH  13  14
ATOM     14  C   UNL     1    -129.500 111.567  42.617  1.00  0.00     0.000 C 
BRANCH  14  15
ATOM     15  C   UNL     1    -128.969 112.312  43.854  1.00  0.00     0.000 C 
BRANCH  15  16
ATOM     16  C   UNL     1    -129.315 113.809  43.835  1.00  0.00     0.000 C 
BRANCH  16  17
ATOM     17  C   UNL     1    -130.108 114.249  45.078  1.00  0.00     0.000 C 
BRANCH  17  18
ATOM     18  C   UNL     1    -129.425 115.416  45.828  1.00  0.00     0.000 C 
BRANCH  18  19
ATOM     19  C   UNL     1    -130.384 116.566  46.183  1.00  0.00     0.000 C 
BRANCH  19  20
ATOM     20  C   UNL     1    -130.341 117.763  45.213  1.00  0.00     0.006 C 
BRANCH  20  21
ATOM     21  C   UNL     1    -128.964 117.982  44.556  1.00  0.00     0.053 C 
BRANCH  21  22
ATOM     22  C   UNL     1    -128.990 117.767  43.074  1.00  0.00     0.041 C 
ATOM     23  O   UNL     1    -128.218 118.424  42.326  1.00  0.00    -0.550 OA
ATOM     24  O   UNL     1    -129.849 116.824  42.518  1.00  0.00    -0.550 OA
ENDBRANCH  21  22
ENDBRANCH  20  21
ENDBRANCH  19  20
ENDBRANCH  18  19
ENDBRANCH  17  18
ENDBRANCH  16  17
ENDBRANCH  15  16
ENDBRANCH  14  15
ENDBRANCH  13  14
ENDBRANCH   1  13
TORSDOF 20
ENDMDL
