MODEL 1
REMARK VINA RESULT:    -5.058      0.000      0.000
REMARK INTER + INTRA:         -10.384
REMARK INTER:                  -9.197
REMARK INTRA:                  -1.187
REMARK UNBOUND:                -1.187
REMARK SMILES CCCCCCCCCCCCCCCC(=O)[O-]
REMARK SMILES IDX 9 1 10 2 11 3 12 4 13 5 14 6 15 7 16 8 17 9 18 10 8 11 7 12
REMARK SMILES IDX 6 13 5 14 4 15 3 16 2 17 1 18
REMARK H PARENT
REMARK Flexibility Score: inf
ROOT
ATOM      1  C   UNL     1       7.073  57.037  21.856  1.00  0.00     0.000 C 
ENDROOT
BRANCH   1   2
ATOM      2  C   UNL     1       5.565  56.727  21.913  1.00  0.00     0.000 C 
BRANCH   2   3
ATOM      3  C   UNL     1       4.714  57.782  22.648  1.00  0.00     0.000 C 
BRANCH   3   4
ATOM      4  C   UNL     1       3.467  58.266  21.881  1.00  0.00     0.000 C 
BRANCH   4   5
ATOM      5  C   UNL     1       3.277  59.792  21.848  1.00  0.00     0.000 C 
BRANCH   5   6
ATOM      6  C   UNL     1       2.324  60.252  20.731  1.00  0.00     0.006 C 
BRANCH   6   7
ATOM      7  C   UNL     1       2.013  59.125  19.737  1.00  0.00     0.053 C 
BRANCH   7   8
ATOM      8  C   UNL     1       1.593  59.663  18.404  1.00  0.00     0.041 C 
ATOM      9  O   UNL     1       0.829  60.663  18.335  1.00  0.00    -0.550 OA
ATOM     10  O   UNL     1       2.073  59.083  17.236  1.00  0.00    -0.550 OA
ENDBRANCH   7   8
ENDBRANCH   6   7
ENDBRANCH   5   6
ENDBRANCH   4   5
ENDBRANCH   3   4
ENDBRANCH   2   3
ENDBRANCH   1   2
BRANCH   1  11
ATOM     11  C   UNL     1       7.973  56.051  22.626  1.00  0.00     0.000 C 
BRANCH  11  12
ATOM     12  C   UNL     1       8.260  54.722  21.902  1.00  0.00    -0.000 C 
BRANCH  12  13
ATOM     13  C   UNL     1       7.347  53.577  22.372  1.00  0.00    -0.000 C 
BRANCH  13  14
ATOM     14  C   UNL     1       6.851  53.771  23.814  1.00  0.00    -0.000 C 
BRANCH  14  15
ATOM     15  C   UNL     1       7.827  53.204  24.861  1.00  0.00    -0.000 C 
BRANCH  15  16
ATOM     16  C   UNL     1       8.137  54.223  25.978  1.00  0.00    -0.000 C 
BRANCH  16  17
ATOM     17  C   UNL     1       9.437  55.012  25.748  1.00  0.00    -0.003 C 
ATOM     18  C   UNL     1      10.481  54.228  24.956  1.00  0.00     0.004 C 
ENDBRANCH  16  17
ENDBRANCH  15  16
ENDBRANCH  14  15
ENDBRANCH  13  14
ENDBRANCH  12  13
ENDBRANCH  11  12
ENDBRANCH   1  11
TORSDOF 14
ENDMDL
MODEL 2
REMARK VINA RESULT:    -5.050      4.164      9.257
REMARK INTER + INTRA:         -10.370
REMARK INTER:                  -9.418
REMARK INTRA:                  -0.952
REMARK UNBOUND:                -1.187
REMARK SMILES CCCCCCCCCCCCCCCC(=O)[O-]
REMARK SMILES IDX 9 1 10 2 11 3 12 4 13 5 14 6 15 7 16 8 17 9 18 10 8 11 7 12
REMARK SMILES IDX 6 13 5 14 4 15 3 16 2 17 1 18
REMARK H PARENT
REMARK Flexibility Score: inf
ROOT
ATOM      1  C   UNL     1       3.922  58.335  22.031  1.00  0.00     0.000 C 
ENDROOT
BRANCH   1   2
ATOM      2  C   UNL     1       4.886  57.323  22.679  1.00  0.00     0.000 C 
BRANCH   2   3
ATOM      3  C   UNL     1       6.187  57.071  21.893  1.00  0.00     0.000 C 
BRANCH   3   4
ATOM      4  C   UNL     1       7.316  56.394  22.697  1.00  0.00     0.000 C 
BRANCH   4   5
ATOM      5  C   UNL     1       8.346  55.626  21.850  1.00  0.00     0.000 C 
BRANCH   5   6
ATOM      6  C   UNL     1       8.610  54.204  22.376  1.00  0.00     0.006 C 
BRANCH   6   7
ATOM      7  C   UNL     1       9.942  54.105  23.130  1.00  0.00     0.053 C 
BRANCH   7   8
ATOM      8  C   UNL     1       9.743  54.164  24.613  1.00  0.00     0.041 C 
ATOM      9  O   UNL     1      10.726  54.347  25.379  1.00  0.00    -0.550 OA
ATOM     10  O   UNL     1       8.466  54.053  25.149  1.00  0.00    -0.550 OA
ENDBRANCH   7   8
ENDBRANCH   6   7
ENDBRANCH   5   6
ENDBRANCH   4   5
ENDBRANCH   3   4
ENDBRANCH   2   3
ENDBRANCH   1   2
BRANCH   1  11
ATOM     11  C   UNL     1       3.075  59.159  23.021  1.00  0.00     0.000 C 
BRANCH  11  12
ATOM     12  C   UNL     1       2.852  60.631  22.627  1.00  0.00    -0.000 C 
BRANCH  12  13
ATOM     13  C   UNL     1       2.667  60.821  21.111  1.00  0.00    -0.000 C 
BRANCH  13  14
ATOM     14  C   UNL     1       1.190  60.956  20.709  1.00  0.00    -0.000 C 
BRANCH  14  15
ATOM     15  C   UNL     1       0.661  59.720  19.958  1.00  0.00    -0.000 C 
BRANCH  15  16
ATOM     16  C   UNL     1       1.729  59.098  19.035  1.00  0.00    -0.000 C 
BRANCH  16  17
ATOM     17  C   UNL     1       1.372  59.174  17.541  1.00  0.00    -0.003 C 
ATOM     18  C   UNL     1       1.444  60.593  16.979  1.00  0.00     0.004 C 
ENDBRANCH  16  17
ENDBRANCH  15  16
ENDBRANCH  14  15
ENDBRANCH  13  14
ENDBRANCH  12  13
ENDBRANCH  11  12
ENDBRANCH   1  11
TORSDOF 14
ENDMDL
MODEL 3
REMARK VINA RESULT:    -5.045      6.542      9.734
REMARK INTER + INTRA:         -10.361
REMARK INTER:                  -9.107
REMARK INTRA:                  -1.255
REMARK UNBOUND:                -1.187
REMARK SMILES CCCCCCCCCCCCCCCC(=O)[O-]
REMARK SMILES IDX 9 1 10 2 11 3 12 4 13 5 14 6 15 7 16 8 17 9 18 10 8 11 7 12
REMARK SMILES IDX 6 13 5 14 4 15 3 16 2 17 1 18
REMARK H PARENT
REMARK Flexibility Score: inf
ROOT
ATOM      1  C   UNL     1       9.069  55.032  25.173  1.00  0.00     0.000 C 
ENDROOT
BRANCH   1   2
ATOM      2  C   UNL     1      10.221  54.070  24.826  1.00  0.00     0.000 C 
BRANCH   2   3
ATOM      3  C   UNL     1      10.518  53.931  23.320  1.00  0.00     0.000 C 
BRANCH   3   4
ATOM      4  C   UNL     1      10.359  52.506  22.751  1.00  0.00     0.000 C 
BRANCH   4   5
ATOM      5  C   UNL     1       9.924  51.443  23.775  1.00  0.00     0.000 C 
BRANCH   5   6
ATOM      6  C   UNL     1      10.428  50.033  23.423  1.00  0.00     0.006 C 
BRANCH   6   7
ATOM      7  C   UNL     1      10.540  49.133  24.661  1.00  0.00     0.053 C 
BRANCH   7   8
ATOM      8  C   UNL     1      10.682  47.691  24.285  1.00  0.00     0.041 C 
ATOM      9  O   UNL     1       9.688  46.920  24.338  1.00  0.00    -0.550 OA
ATOM     10  O   UNL     1      11.906  47.205  23.842  1.00  0.00    -0.550 OA
ENDBRANCH   7   8
ENDBRANCH   6   7
ENDBRANCH   5   6
ENDBRANCH   4   5
ENDBRANCH   3   4
ENDBRANCH   2   3
ENDBRANCH   1   2
BRANCH   1  11
ATOM     11  C   UNL     1       7.694  54.362  25.371  1.00  0.00     0.000 C 
BRANCH  11  12
ATOM     12  C   UNL     1       7.127  53.649  24.130  1.00  0.00    -0.000 C 
BRANCH  12  13
ATOM     13  C   UNL     1       6.167  54.536  23.319  1.00  0.00    -0.000 C 
BRANCH  13  14
ATOM     14  C   UNL     1       6.862  55.772  22.728  1.00  0.00    -0.000 C 
BRANCH  14  15
ATOM     15  C   UNL     1       7.737  55.438  21.506  1.00  0.00    -0.000 C 
BRANCH  15  16
ATOM     16  C   UNL     1       7.151  54.281  20.670  1.00  0.00    -0.000 C 
BRANCH  16  17
ATOM     17  C   UNL     1       7.471  54.382  19.169  1.00  0.00    -0.003 C 
ATOM     18  C   UNL     1       6.244  54.186  18.280  1.00  0.00     0.004 C 
ENDBRANCH  16  17
ENDBRANCH  15  16
ENDBRANCH  14  15
ENDBRANCH  13  14
ENDBRANCH  12  13
ENDBRANCH  11  12
ENDBRANCH   1  11
TORSDOF 14
ENDMDL
MODEL 4
REMARK VINA RESULT:    -4.992      4.447      8.398
REMARK INTER + INTRA:         -10.265
REMARK INTER:                  -9.302
REMARK INTRA:                  -0.963
REMARK UNBOUND:                -1.187
REMARK SMILES CCCCCCCCCCCCCCCC(=O)[O-]
REMARK SMILES IDX 9 1 10 2 11 3 12 4 13 5 14 6 15 7 16 8 17 9 18 10 8 11 7 12
REMARK SMILES IDX 6 13 5 14 4 15 3 16 2 17 1 18
REMARK H PARENT
REMARK Flexibility Score: inf
ROOT
ATOM      1  C   UNL     1       7.800  55.913  21.292  1.00  0.00     0.000 C 
ENDROOT
BRANCH   1   2
ATOM      2  C   UNL     1       6.961  54.856  20.548  1.00  0.00     0.000 C 
BRANCH   2   3
ATOM      3  C   UNL     1       6.559  53.633  21.396  1.00  0.00     0.000 C 
BRANCH   3   4
ATOM      4  C   UNL     1       7.486  53.335  22.592  1.00  0.00     0.000 C 
BRANCH   4   5
ATOM      5  C   UNL     1       6.888  53.656  23.973  1.00  0.00     0.000 C 
BRANCH   5   6
ATOM      6  C   UNL     1       7.849  53.333  25.130  1.00  0.00     0.006 C 
BRANCH   6   7
ATOM      7  C   UNL     1       8.644  54.565  25.583  1.00  0.00     0.053 C 
BRANCH   7   8
ATOM      8  C   UNL     1      10.113  54.391  25.349  1.00  0.00     0.041 C 
ATOM      9  O   UNL     1      10.536  54.006  24.227  1.00  0.00    -0.550 OA
ATOM     10  O   UNL     1      11.018  54.689  26.361  1.00  0.00    -0.550 OA
ENDBRANCH   7   8
ENDBRANCH   6   7
ENDBRANCH   5   6
ENDBRANCH   4   5
ENDBRANCH   3   4
ENDBRANCH   2   3
ENDBRANCH   1   2
BRANCH   1  11
ATOM     11  C   UNL     1       6.989  57.050  21.946  1.00  0.00     0.000 C 
BRANCH  11  12
ATOM     12  C   UNL     1       5.524  56.707  22.273  1.00  0.00    -0.000 C 
BRANCH  12  13
ATOM     13  C   UNL     1       4.659  57.955  22.522  1.00  0.00    -0.000 C 
BRANCH  13  14
ATOM     14  C   UNL     1       3.349  57.936  21.718  1.00  0.00    -0.000 C 
BRANCH  14  15
ATOM     15  C   UNL     1       2.797  59.345  21.443  1.00  0.00    -0.000 C 
BRANCH  15  16
ATOM     16  C   UNL     1       2.815  60.234  22.705  1.00  0.00    -0.000 C 
BRANCH  16  17
ATOM     17  C   UNL     1       1.425  60.447  23.327  1.00  0.00    -0.003 C 
ATOM     18  C   UNL     1       0.945  59.251  24.146  1.00  0.00     0.004 C 
ENDBRANCH  16  17
ENDBRANCH  15  16
ENDBRANCH  14  15
ENDBRANCH  13  14
ENDBRANCH  12  13
ENDBRANCH  11  12
ENDBRANCH   1  11
TORSDOF 14
ENDMDL
MODEL 5
REMARK VINA RESULT:    -4.988      2.672      3.201
REMARK INTER + INTRA:         -10.257
REMARK INTER:                  -9.195
REMARK INTRA:                  -1.063
REMARK UNBOUND:                -1.187
REMARK SMILES CCCCCCCCCCCCCCCC(=O)[O-]
REMARK SMILES IDX 9 1 10 2 11 3 12 4 13 5 14 6 15 7 16 8 17 9 18 10 8 11 7 12
REMARK SMILES IDX 6 13 5 14 4 15 3 16 2 17 1 18
REMARK H PARENT
REMARK Flexibility Score: inf
ROOT
ATOM      1  C   UNL     1       6.419  56.818  21.701  1.00  0.00     0.000 C 
ENDROOT
BRANCH   1   2
ATOM      2  C   UNL     1       5.159  57.191  22.506  1.00  0.00     0.000 C 
BRANCH   2   3
ATOM      3  C   UNL     1       4.254  58.247  21.840  1.00  0.00     0.000 C 
BRANCH   3   4
ATOM      4  C   UNL     1       2.741  57.958  21.928  1.00  0.00     0.000 C 
BRANCH   4   5
ATOM      5  C   UNL     1       1.841  58.993  21.230  1.00  0.00     0.000 C 
BRANCH   5   6
ATOM      6  C   UNL     1       1.035  59.849  22.222  1.00  0.00     0.006 C 
BRANCH   6   7
ATOM      7  C   UNL     1       1.410  59.552  23.680  1.00  0.00     0.053 C 
BRANCH   7   8
ATOM      8  C   UNL     1       0.219  59.630  24.584  1.00  0.00     0.041 C 
ATOM      9  O   UNL     1       0.176  58.941  25.638  1.00  0.00    -0.550 OA
ATOM     10  O   UNL     1      -0.829  60.490  24.282  1.00  0.00    -0.550 OA
ENDBRANCH   7   8
ENDBRANCH   6   7
ENDBRANCH   5   6
ENDBRANCH   4   5
ENDBRANCH   3   4
ENDBRANCH   2   3
ENDBRANCH   1   2
BRANCH   1  11
ATOM     11  C   UNL     1       7.648  56.435  22.549  1.00  0.00     0.000 C 
BRANCH  11  12
ATOM     12  C   UNL     1       8.404  55.179  22.078  1.00  0.00    -0.000 C 
BRANCH  12  13
ATOM     13  C   UNL     1       7.545  53.903  22.149  1.00  0.00    -0.000 C 
BRANCH  13  14
ATOM     14  C   UNL     1       6.963  53.662  23.551  1.00  0.00    -0.000 C 
BRANCH  14  15
ATOM     15  C   UNL     1       8.024  53.202  24.567  1.00  0.00    -0.000 C 
BRANCH  15  16
ATOM     16  C   UNL     1       8.127  54.159  25.774  1.00  0.00    -0.000 C 
BRANCH  16  17
ATOM     17  C   UNL     1       9.313  55.134  25.686  1.00  0.00    -0.003 C 
ATOM     18  C   UNL     1      10.662  54.428  25.563  1.00  0.00     0.004 C 
ENDBRANCH  16  17
ENDBRANCH  15  16
ENDBRANCH  14  15
ENDBRANCH  13  14
ENDBRANCH  12  13
ENDBRANCH  11  12
ENDBRANCH   1  11
TORSDOF 14
ENDMDL
MODEL 6
REMARK VINA RESULT:    -4.984      1.162      2.073
REMARK INTER + INTRA:         -10.251
REMARK INTER:                  -9.587
REMARK INTRA:                  -0.664
REMARK UNBOUND:                -1.187
REMARK SMILES CCCCCCCCCCCCCCCC(=O)[O-]
REMARK SMILES IDX 9 1 10 2 11 3 12 4 13 5 14 6 15 7 16 8 17 9 18 10 8 11 7 12
REMARK SMILES IDX 6 13 5 14 4 15 3 16 2 17 1 18
REMARK H PARENT
REMARK Flexibility Score: inf
ROOT
ATOM      1  C   UNL     1       5.104  57.678  22.670  1.00  0.00     0.000 C 
ENDROOT
BRANCH   1   2
ATOM      2  C   UNL     1       3.788  57.962  21.921  1.00  0.00     0.000 C 
BRANCH   2   3
ATOM      3  C   UNL     1       3.162  59.340  22.209  1.00  0.00     0.000 C 
BRANCH   3   4
ATOM      4  C   UNL     1       2.505  60.026  20.994  1.00  0.00     0.000 C 
BRANCH   4   5
ATOM      5  C   UNL     1       1.804  59.073  20.011  1.00  0.00     0.000 C 
BRANCH   5   6
ATOM      6  C   UNL     1       1.267  59.793  18.762  1.00  0.00     0.006 C 
BRANCH   6   7
ATOM      7  C   UNL     1       1.399  58.933  17.498  1.00  0.00     0.053 C 
BRANCH   7   8
ATOM      8  C   UNL     1       2.248  59.602  16.461  1.00  0.00     0.041 C 
ATOM      9  O   UNL     1       2.243  60.856  16.348  1.00  0.00    -0.550 OA
ATOM     10  O   UNL     1       3.073  58.841  15.641  1.00  0.00    -0.550 OA
ENDBRANCH   7   8
ENDBRANCH   6   7
ENDBRANCH   5   6
ENDBRANCH   4   5
ENDBRANCH   3   4
ENDBRANCH   2   3
ENDBRANCH   1   2
BRANCH   1  11
ATOM     11  C   UNL     1       5.767  56.326  22.340  1.00  0.00     0.000 C 
BRANCH  11  12
ATOM     12  C   UNL     1       7.246  56.405  21.919  1.00  0.00    -0.000 C 
BRANCH  12  13
ATOM     13  C   UNL     1       7.856  55.025  21.617  1.00  0.00    -0.000 C 
BRANCH  13  14
ATOM     14  C   UNL     1       7.483  53.971  22.672  1.00  0.00    -0.000 C 
BRANCH  14  15
ATOM     15  C   UNL     1       8.713  53.277  23.283  1.00  0.00    -0.000 C 
BRANCH  15  16
ATOM     16  C   UNL     1       9.850  54.274  23.592  1.00  0.00    -0.000 C 
BRANCH  16  17
ATOM     17  C   UNL     1       9.710  54.963  24.959  1.00  0.00    -0.003 C 
ATOM     18  C   UNL     1      10.777  54.529  25.962  1.00  0.00     0.004 C 
ENDBRANCH  16  17
ENDBRANCH  15  16
ENDBRANCH  14  15
ENDBRANCH  13  14
ENDBRANCH  12  13
ENDBRANCH  11  12
ENDBRANCH   1  11
TORSDOF 14
ENDMDL
MODEL 7
REMARK VINA RESULT:    -4.936      4.555      8.720
REMARK INTER + INTRA:         -10.162
REMARK INTER:                  -9.134
REMARK INTRA:                  -1.028
REMARK UNBOUND:                -1.187
REMARK SMILES CCCCCCCCCCCCCCCC(=O)[O-]
REMARK SMILES IDX 9 1 10 2 11 3 12 4 13 5 14 6 15 7 16 8 17 9 18 10 8 11 7 12
REMARK SMILES IDX 6 13 5 14 4 15 3 16 2 17 1 18
REMARK H PARENT
REMARK Flexibility Score: inf
ROOT
ATOM      1  C   UNL     1       6.422  56.841  21.503  1.00  0.00     0.000 C 
ENDROOT
BRANCH   1   2
ATOM      2  C   UNL     1       7.791  56.328  21.989  1.00  0.00     0.000 C 
BRANCH   2   3
ATOM      3  C   UNL     1       8.026  54.818  21.788  1.00  0.00     0.000 C 
BRANCH   3   4
ATOM      4  C   UNL     1       6.904  53.905  22.323  1.00  0.00     0.000 C 
BRANCH   4   5
ATOM      5  C   UNL     1       6.727  53.922  23.852  1.00  0.00     0.000 C 
BRANCH   5   6
ATOM      6  C   UNL     1       7.909  53.279  24.597  1.00  0.00     0.006 C 
BRANCH   6   7
ATOM      7  C   UNL     1       8.679  54.297  25.449  1.00  0.00     0.053 C 
BRANCH   7   8
ATOM      8  C   UNL     1      10.149  54.256  25.165  1.00  0.00     0.041 C 
ATOM      9  O   UNL     1      10.977  54.553  26.066  1.00  0.00    -0.550 OA
ATOM     10  O   UNL     1      10.606  53.856  23.916  1.00  0.00    -0.550 OA
ENDBRANCH   7   8
ENDBRANCH   6   7
ENDBRANCH   5   6
ENDBRANCH   4   5
ENDBRANCH   3   4
ENDBRANCH   2   3
ENDBRANCH   1   2
BRANCH   1  11
ATOM     11  C   UNL     1       5.449  57.268  22.620  1.00  0.00     0.000 C 
BRANCH  11  12
ATOM     12  C   UNL     1       4.016  57.585  22.156  1.00  0.00    -0.000 C 
BRANCH  12  13
ATOM     13  C   UNL     1       3.854  59.035  21.666  1.00  0.00    -0.000 C 
BRANCH  13  14
ATOM     14  C   UNL     1       3.051  59.903  22.648  1.00  0.00    -0.000 C 
BRANCH  14  15
ATOM     15  C   UNL     1       1.782  60.501  22.016  1.00  0.00    -0.000 C 
BRANCH  15  16
ATOM     16  C   UNL     1       0.542  60.321  22.918  1.00  0.00    -0.000 C 
BRANCH  16  17
ATOM     17  C   UNL     1       0.798  59.429  24.145  1.00  0.00    -0.003 C 
ATOM     18  C   UNL     1      -0.258  59.592  25.235  1.00  0.00     0.004 C 
ENDBRANCH  16  17
ENDBRANCH  15  16
ENDBRANCH  14  15
ENDBRANCH  13  14
ENDBRANCH  12  13
ENDBRANCH  11  12
ENDBRANCH   1  11
TORSDOF 14
ENDMDL
MODEL 8
REMARK VINA RESULT:    -4.834      2.043      3.732
REMARK INTER + INTRA:          -9.978
REMARK INTER:                  -9.107
REMARK INTRA:                  -0.871
REMARK UNBOUND:                -1.187
REMARK SMILES CCCCCCCCCCCCCCCC(=O)[O-]
REMARK SMILES IDX 9 1 10 2 11 3 12 4 13 5 14 6 15 7 16 8 17 9 18 10 8 11 7 12
REMARK SMILES IDX 6 13 5 14 4 15 3 16 2 17 1 18
REMARK H PARENT
REMARK Flexibility Score: inf
ROOT
ATOM      1  C   UNL     1       4.355  58.240  22.619  1.00  0.00     0.000 C 
ENDROOT
BRANCH   1   2
ATOM      2  C   UNL     1       3.168  58.326  21.642  1.00  0.00     0.000 C 
BRANCH   2   3
ATOM      3  C   UNL     1       2.591  59.742  21.444  1.00  0.00     0.000 C 
BRANCH   3   4
ATOM      4  C   UNL     1       1.088  59.794  21.104  1.00  0.00     0.000 C 
BRANCH   4   5
ATOM      5  C   UNL     1       0.721  59.274  19.703  1.00  0.00     0.000 C 
BRANCH   5   6
ATOM      6  C   UNL     1       1.714  59.726  18.618  1.00  0.00     0.006 C 
BRANCH   6   7
ATOM      7  C   UNL     1       1.402  59.102  17.252  1.00  0.00     0.053 C 
BRANCH   7   8
ATOM      8  C   UNL     1       2.450  59.440  16.237  1.00  0.00     0.041 C 
ATOM      9  O   UNL     1       2.813  60.636  16.074  1.00  0.00    -0.550 OA
ATOM     10  O   UNL     1       3.053  58.432  15.496  1.00  0.00    -0.550 OA
ENDBRANCH   7   8
ENDBRANCH   6   7
ENDBRANCH   5   6
ENDBRANCH   4   5
ENDBRANCH   3   4
ENDBRANCH   2   3
ENDBRANCH   1   2
BRANCH   1  11
ATOM     11  C   UNL     1       5.152  56.921  22.567  1.00  0.00     0.000 C 
BRANCH  11  12
ATOM     12  C   UNL     1       6.511  57.004  21.849  1.00  0.00    -0.000 C 
BRANCH  12  13
ATOM     13  C   UNL     1       7.658  56.385  22.668  1.00  0.00    -0.000 C 
BRANCH  13  14
ATOM     14  C   UNL     1       8.168  55.066  22.066  1.00  0.00    -0.000 C 
BRANCH  14  15
ATOM     15  C   UNL     1       7.113  53.945  22.104  1.00  0.00    -0.000 C 
BRANCH  15  16
ATOM     16  C   UNL     1       6.543  53.635  20.704  1.00  0.00    -0.000 C 
BRANCH  16  17
ATOM     17  C   UNL     1       7.426  54.146  19.553  1.00  0.00    -0.003 C 
ATOM     18  C   UNL     1       6.619  54.700  18.380  1.00  0.00     0.004 C 
ENDBRANCH  16  17
ENDBRANCH  15  16
ENDBRANCH  14  15
ENDBRANCH  13  14
ENDBRANCH  12  13
ENDBRANCH  11  12
ENDBRANCH   1  11
TORSDOF 14
ENDMDL
MODEL 9
REMARK VINA RESULT:    -4.812      3.004      3.815
REMARK INTER + INTRA:          -9.938
REMARK INTER:                  -8.930
REMARK INTRA:                  -1.008
REMARK UNBOUND:                -1.187
REMARK SMILES CCCCCCCCCCCCCCCC(=O)[O-]
REMARK SMILES IDX 9 1 10 2 11 3 12 4 13 5 14 6 15 7 16 8 17 9 18 10 8 11 7 12
REMARK SMILES IDX 6 13 5 14 4 15 3 16 2 17 1 18
REMARK H PARENT
REMARK Flexibility Score: inf
ROOT
ATOM      1  C   UNL     1       5.010  56.768  22.294  1.00  0.00     0.000 C 
ENDROOT
BRANCH   1   2
ATOM      2  C   UNL     1       4.315  58.116  22.568  1.00  0.00     0.000 C 
BRANCH   2   3
ATOM      3  C   UNL     1       3.275  58.536  21.511  1.00  0.00     0.000 C 
BRANCH   3   4
ATOM      4  C   UNL     1       2.999  60.051  21.432  1.00  0.00     0.000 C 
BRANCH   4   5
ATOM      5  C   UNL     1       2.516  60.693  22.744  1.00  0.00     0.000 C 
BRANCH   5   6
ATOM      6  C   UNL     1       1.066  60.316  23.094  1.00  0.00     0.006 C 
BRANCH   6   7
ATOM      7  C   UNL     1       0.987  59.413  24.332  1.00  0.00     0.053 C 
BRANCH   7   8
ATOM      8  C   UNL     1      -0.364  59.474  24.976  1.00  0.00     0.041 C 
ATOM      9  O   UNL     1      -1.397  59.617  24.271  1.00  0.00    -0.550 OA
ATOM     10  O   UNL     1      -0.485  59.339  26.354  1.00  0.00    -0.550 OA
ENDBRANCH   7   8
ENDBRANCH   6   7
ENDBRANCH   5   6
ENDBRANCH   4   5
ENDBRANCH   3   4
ENDBRANCH   2   3
ENDBRANCH   1   2
BRANCH   1  11
ATOM     11  C   UNL     1       6.509  56.720  22.650  1.00  0.00     0.000 C 
BRANCH  11  12
ATOM     12  C   UNL     1       7.466  56.638  21.447  1.00  0.00    -0.000 C 
BRANCH  12  13
ATOM     13  C   UNL     1       8.433  55.444  21.533  1.00  0.00    -0.000 C 
BRANCH  13  14
ATOM     14  C   UNL     1       7.722  54.136  21.916  1.00  0.00    -0.000 C 
BRANCH  14  15
ATOM     15  C   UNL     1       8.417  53.394  23.071  1.00  0.00    -0.000 C 
BRANCH  15  16
ATOM     16  C   UNL     1       9.897  53.807  23.220  1.00  0.00    -0.000 C 
BRANCH  16  17
ATOM     17  C   UNL     1      10.307  54.113  24.671  1.00  0.00    -0.003 C 
ATOM     18  C   UNL     1       9.562  55.305  25.266  1.00  0.00     0.004 C 
ENDBRANCH  16  17
ENDBRANCH  15  16
ENDBRANCH  14  15
ENDBRANCH  13  14
ENDBRANCH  12  13
ENDBRANCH  11  12
ENDBRANCH   1  11
TORSDOF 14
ENDMDL
