MODEL 1
REMARK VINA RESULT:     0.298      0.000      0.000
REMARK INTER + INTRA:           1.091
REMARK INTER:                   0.351
REMARK INTRA:                   0.740
REMARK UNBOUND:                 0.740
REMARK SMILES O=C([O-])C=Cc1ccc(O)c(O)c1
REMARK SMILES IDX 6 1 13 2 7 3 11 4 8 5 9 6 5 7 4 8 2 9 1 10 3 11 12 12 10 14
REMARK H PARENT 12 13 10 15
REMARK Flexibility Score: inf
ROOT
ATOM      1  C   UNL     1      16.760  96.138   8.802  1.00  0.00    -0.022 A 
ATOM      2  C   UNL     1      18.031  96.306   8.225  1.00  0.00     0.058 A 
ATOM      3  C   UNL     1      16.029  97.268   9.192  1.00  0.00     0.012 A 
ATOM      4  C   UNL     1      18.586  97.587   8.089  1.00  0.00     0.157 A 
ATOM      5  C   UNL     1      16.580  98.546   9.058  1.00  0.00     0.051 A 
ATOM      6  C   UNL     1      17.857  98.712   8.512  1.00  0.00     0.157 A 
ENDROOT
BRANCH   1   7
ATOM      7  C   UNL     1      16.138  94.802   8.905  1.00  0.00     0.010 C 
ATOM      8  C   UNL     1      16.772  93.633   8.726  1.00  0.00     0.025 C 
BRANCH   8   9
ATOM      9  C   UNL     1      18.231  93.465   8.585  1.00  0.00     0.064 C 
ATOM     10  O   UNL     1      18.740  93.446   7.433  1.00  0.00    -0.545 OA
ATOM     11  O   UNL     1      19.049  93.254   9.688  1.00  0.00    -0.545 OA
ENDBRANCH   8   9
ENDBRANCH   1   7
BRANCH   4  12
ATOM     12  O   UNL     1      19.853  97.746   7.531  1.00  0.00    -0.504 OA
ATOM     13  H   UNL     1      20.087  97.359   6.624  1.00  0.00     0.293 HD
ENDBRANCH   4  12
BRANCH   6  14
ATOM     14  O   UNL     1      18.381  99.998   8.393  1.00  0.00    -0.504 OA
ATOM     15  H   UNL     1      17.788 100.819   8.352  1.00  0.00     0.293 HD
ENDBRANCH   6  14
TORSDOF 4
ENDMDL
MODEL 2
REMARK VINA RESULT:     1.322      0.784      1.903
REMARK INTER + INTRA:           2.294
REMARK INTER:                   1.447
REMARK INTRA:                   0.847
REMARK UNBOUND:                 0.740
REMARK SMILES O=C([O-])C=Cc1ccc(O)c(O)c1
REMARK SMILES IDX 6 1 13 2 7 3 11 4 8 5 9 6 5 7 4 8 2 9 1 10 3 11 12 12 10 14
REMARK H PARENT 12 13 10 15
REMARK Flexibility Score: inf
ROOT
ATOM      1  C   UNL     1      16.742  96.101   8.687  1.00  0.00    -0.022 A 
ATOM      2  C   UNL     1      16.014  97.218   9.130  1.00  0.00     0.058 A 
ATOM      3  C   UNL     1      18.044  96.280   8.200  1.00  0.00     0.012 A 
ATOM      4  C   UNL     1      16.561  98.506   9.036  1.00  0.00     0.157 A 
ATOM      5  C   UNL     1      18.592  97.562   8.105  1.00  0.00     0.051 A 
ATOM      6  C   UNL     1      17.856  98.678   8.517  1.00  0.00     0.157 A 
ENDROOT
BRANCH   1   7
ATOM      7  C   UNL     1      16.204  94.732   8.826  1.00  0.00     0.010 C 
ATOM      8  C   UNL     1      16.912  93.601   8.683  1.00  0.00     0.025 C 
BRANCH   8   9
ATOM      9  C   UNL     1      18.379  93.520   8.552  1.00  0.00     0.064 C 
ATOM     10  O   UNL     1      18.893  93.475   7.404  1.00  0.00    -0.545 OA
ATOM     11  O   UNL     1      19.204  93.422   9.666  1.00  0.00    -0.545 OA
ENDBRANCH   8   9
ENDBRANCH   1   7
BRANCH   4  12
ATOM     12  O   UNL     1      15.827  99.612   9.461  1.00  0.00    -0.504 OA
ATOM     13  H   UNL     1      14.851  99.533   9.721  1.00  0.00     0.293 HD
ENDBRANCH   4  12
BRANCH   6  14
ATOM     14  O   UNL     1      18.428  99.945   8.408  1.00  0.00    -0.504 OA
ATOM     15  H   UNL     1      17.872 100.772   8.225  1.00  0.00     0.293 HD
ENDBRANCH   6  14
TORSDOF 4
ENDMDL
MODEL 3
REMARK VINA RESULT:     1.323      2.200      4.641
REMARK INTER + INTRA:           2.295
REMARK INTER:                   1.387
REMARK INTRA:                   0.908
REMARK UNBOUND:                 0.740
REMARK SMILES O=C([O-])C=Cc1ccc(O)c(O)c1
REMARK SMILES IDX 6 1 13 2 7 3 11 4 8 5 9 6 5 7 4 8 2 9 1 10 3 11 12 12 10 14
REMARK H PARENT 12 13 10 15
REMARK Flexibility Score: inf
ROOT
ATOM      1  C   UNL     1      17.551  96.747   8.428  1.00  0.00    -0.022 A 
ATOM      2  C   UNL     1      17.048  95.435   8.445  1.00  0.00     0.058 A 
ATOM      3  C   UNL     1      16.805  97.775   9.021  1.00  0.00     0.012 A 
ATOM      4  C   UNL     1      15.789  95.163   9.002  1.00  0.00     0.157 A 
ATOM      5  C   UNL     1      15.551  97.508   9.576  1.00  0.00     0.051 A 
ATOM      6  C   UNL     1      15.035  96.207   9.566  1.00  0.00     0.157 A 
ENDROOT
BRANCH   1   7
ATOM      7  C   UNL     1      18.895  97.044   7.894  1.00  0.00     0.010 C 
ATOM      8  C   UNL     1      19.527  98.224   7.993  1.00  0.00     0.025 C 
BRANCH   8   9
ATOM      9  C   UNL     1      19.080  99.368   8.810  1.00  0.00     0.064 C 
ATOM     10  O   UNL     1      18.354 100.253   8.285  1.00  0.00    -0.545 OA
ATOM     11  O   UNL     1      19.499  99.530  10.125  1.00  0.00    -0.545 OA
ENDBRANCH   8   9
ENDBRANCH   1   7
BRANCH   4  12
ATOM     12  O   UNL     1      15.289  93.862   9.000  1.00  0.00    -0.504 OA
ATOM     13  H   UNL     1      15.513  93.208   8.260  1.00  0.00     0.293 HD
ENDBRANCH   4  12
BRANCH   6  14
ATOM     14  O   UNL     1      13.780  95.971  10.125  1.00  0.00    -0.504 OA
ATOM     15  H   UNL     1      13.670  95.610  11.065  1.00  0.00     0.293 HD
ENDBRANCH   6  14
TORSDOF 4
ENDMDL
MODEL 4
REMARK VINA RESULT:     1.711      1.193      4.809
REMARK INTER + INTRA:           2.751
REMARK INTER:                   1.832
REMARK INTRA:                   0.919
REMARK UNBOUND:                 0.740
REMARK SMILES O=C([O-])C=Cc1ccc(O)c(O)c1
REMARK SMILES IDX 6 1 13 2 7 3 11 4 8 5 9 6 5 7 4 8 2 9 1 10 3 11 12 12 10 14
REMARK H PARENT 12 13 10 15
REMARK Flexibility Score: inf
ROOT
ATOM      1  C   UNL     1      16.847  96.879   8.670  1.00  0.00    -0.022 A 
ATOM      2  C   UNL     1      16.258  95.643   8.988  1.00  0.00     0.058 A 
ATOM      3  C   UNL     1      18.038  96.901   7.931  1.00  0.00     0.012 A 
ATOM      4  C   UNL     1      16.880  94.442   8.616  1.00  0.00     0.157 A 
ATOM      5  C   UNL     1      18.661  95.706   7.560  1.00  0.00     0.051 A 
ATOM      6  C   UNL     1      18.091  94.475   7.902  1.00  0.00     0.157 A 
ENDROOT
BRANCH   1   7
ATOM      7  C   UNL     1      16.181  98.153   9.007  1.00  0.00     0.010 C 
ATOM      8  C   UNL     1      16.796  99.338   9.149  1.00  0.00     0.025 C 
BRANCH   8   9
ATOM      9  C   UNL     1      18.205  99.616   8.811  1.00  0.00     0.064 C 
ATOM     10  O   UNL     1      18.467 100.335   7.811  1.00  0.00    -0.545 OA
ATOM     11  O   UNL     1      19.250  99.045   9.526  1.00  0.00    -0.545 OA
ENDBRANCH   8   9
ENDBRANCH   1   7
BRANCH   4  12
ATOM     12  O   UNL     1      16.299  93.220   8.948  1.00  0.00    -0.504 OA
ATOM     13  H   UNL     1      15.692  93.122   9.753  1.00  0.00     0.293 HD
ENDBRANCH   4  12
BRANCH   6  14
ATOM     14  O   UNL     1      18.736  93.300   7.520  1.00  0.00    -0.504 OA
ATOM     15  H   UNL     1      19.053  93.145   6.571  1.00  0.00     0.293 HD
ENDBRANCH   6  14
TORSDOF 4
ENDMDL
MODEL 5
REMARK VINA RESULT:     1.923      2.747      4.688
REMARK INTER + INTRA:           3.000
REMARK INTER:                   2.258
REMARK INTRA:                   0.743
REMARK UNBOUND:                 0.740
REMARK SMILES O=C([O-])C=Cc1ccc(O)c(O)c1
REMARK SMILES IDX 6 1 13 2 7 3 11 4 8 5 9 6 5 7 4 8 2 9 1 10 3 11 12 12 10 14
REMARK H PARENT 12 13 10 15
REMARK Flexibility Score: inf
ROOT
ATOM      1  C   UNL     1      17.439  96.644   8.547  1.00  0.00    -0.022 A 
ATOM      2  C   UNL     1      16.663  97.704   9.046  1.00  0.00     0.058 A 
ATOM      3  C   UNL     1      16.906  95.348   8.540  1.00  0.00     0.012 A 
ATOM      4  C   UNL     1      15.388  97.462   9.581  1.00  0.00     0.157 A 
ATOM      5  C   UNL     1      15.637  95.103   9.073  1.00  0.00     0.051 A 
ATOM      6  C   UNL     1      14.876  96.153   9.598  1.00  0.00     0.157 A 
ENDROOT
BRANCH   1   7
ATOM      7  C   UNL     1      18.760  96.887   7.933  1.00  0.00     0.010 C 
ATOM      8  C   UNL     1      19.434  98.046   7.971  1.00  0.00     0.025 C 
BRANCH   8   9
ATOM      9  C   UNL     1      19.070  99.220   8.788  1.00  0.00     0.064 C 
ATOM     10  O   UNL     1      18.378 100.138   8.274  1.00  0.00    -0.545 OA
ATOM     11  O   UNL     1      19.533  99.371  10.090  1.00  0.00    -0.545 OA
ENDBRANCH   8   9
ENDBRANCH   1   7
BRANCH   4  12
ATOM     12  O   UNL     1      14.630  98.515  10.090  1.00  0.00    -0.504 OA
ATOM     13  H   UNL     1      13.651  98.400  10.322  1.00  0.00     0.293 HD
ENDBRANCH   4  12
BRANCH   6  14
ATOM     14  O   UNL     1      13.615  95.878  10.125  1.00  0.00    -0.504 OA
ATOM     15  H   UNL     1      13.255  94.934  10.193  1.00  0.00     0.293 HD
ENDBRANCH   6  14
TORSDOF 4
ENDMDL
MODEL 6
REMARK VINA RESULT:     2.235      1.465      2.330
REMARK INTER + INTRA:           3.367
REMARK INTER:                   3.225
REMARK INTRA:                   0.142
REMARK UNBOUND:                 0.740
REMARK SMILES O=C([O-])C=Cc1ccc(O)c(O)c1
REMARK SMILES IDX 6 1 13 2 7 3 11 4 8 5 9 6 5 7 4 8 2 9 1 10 3 11 12 12 10 14
REMARK H PARENT 12 13 10 15
REMARK Flexibility Score: inf
ROOT
ATOM      1  C   UNL     1      17.761  95.306   8.015  1.00  0.00    -0.022 A 
ATOM      2  C   UNL     1      18.213  96.636   8.030  1.00  0.00     0.058 A 
ATOM      3  C   UNL     1      16.499  95.004   8.544  1.00  0.00     0.012 A 
ATOM      4  C   UNL     1      17.434  97.646   8.616  1.00  0.00     0.157 A 
ATOM      5  C   UNL     1      15.720  96.008   9.129  1.00  0.00     0.051 A 
ATOM      6  C   UNL     1      16.183  97.327   9.172  1.00  0.00     0.157 A 
ENDROOT
BRANCH   1   7
ATOM      7  C   UNL     1      18.543  94.240   7.357  1.00  0.00     0.010 C 
ATOM      8  C   UNL     1      19.191  93.249   7.989  1.00  0.00     0.025 C 
BRANCH   8   9
ATOM      9  C   UNL     1      19.083  92.936   9.427  1.00  0.00     0.064 C 
ATOM     10  O   UNL     1      20.129  92.881  10.125  1.00  0.00    -0.545 OA
ATOM     11  O   UNL     1      17.861  92.631  10.014  1.00  0.00    -0.545 OA
ENDBRANCH   8   9
ENDBRANCH   1   7
BRANCH   4  12
ATOM     12  O   UNL     1      17.896  98.961   8.642  1.00  0.00    -0.504 OA
ATOM     13  H   UNL     1      18.715  99.246   8.120  1.00  0.00     0.293 HD
ENDBRANCH   4  12
BRANCH   6  14
ATOM     14  O   UNL     1      15.386  98.306   9.763  1.00  0.00    -0.504 OA
ATOM     15  H   UNL     1      15.606  98.705  10.668  1.00  0.00     0.293 HD
ENDBRANCH   6  14
TORSDOF 4
ENDMDL
MODEL 7
REMARK VINA RESULT:     2.326      1.461      4.481
REMARK INTER + INTRA:           3.475
REMARK INTER:                   2.355
REMARK INTRA:                   1.120
REMARK UNBOUND:                 0.740
REMARK SMILES O=C([O-])C=Cc1ccc(O)c(O)c1
REMARK SMILES IDX 6 1 13 2 7 3 11 4 8 5 9 6 5 7 4 8 2 9 1 10 3 11 12 12 10 14
REMARK H PARENT 12 13 10 15
REMARK Flexibility Score: inf
ROOT
ATOM      1  C   UNL     1      16.865  97.780   8.614  1.00  0.00    -0.022 A 
ATOM      2  C   UNL     1      17.736  96.880   7.976  1.00  0.00     0.058 A 
ATOM      3  C   UNL     1      15.826  97.280   9.411  1.00  0.00     0.012 A 
ATOM      4  C   UNL     1      17.537  95.496   8.090  1.00  0.00     0.157 A 
ATOM      5  C   UNL     1      15.625  95.901   9.527  1.00  0.00     0.051 A 
ATOM      6  C   UNL     1      16.473  95.005   8.866  1.00  0.00     0.157 A 
ENDROOT
BRANCH   1   7
ATOM      7  C   UNL     1      17.089  99.238   8.549  1.00  0.00     0.010 C 
ATOM      8  C   UNL     1      18.226  99.865   8.885  1.00  0.00     0.025 C 
BRANCH   8   9
ATOM      9  C   UNL     1      19.508  99.204   9.194  1.00  0.00     0.064 C 
ATOM     10  O   UNL     1      20.226  99.656  10.125  1.00  0.00    -0.545 OA
ATOM     11  O   UNL     1      19.977  98.137   8.437  1.00  0.00    -0.545 OA
ENDBRANCH   8   9
ENDBRANCH   1   7
BRANCH   4  12
ATOM     12  O   UNL     1      18.394  94.609   7.441  1.00  0.00    -0.504 OA
ATOM     13  H   UNL     1      18.963  93.948   7.956  1.00  0.00     0.293 HD
ENDBRANCH   4  12
BRANCH   6  14
ATOM     14  O   UNL     1      16.246  93.636   8.998  1.00  0.00    -0.504 OA
ATOM     15  H   UNL     1      16.726  92.954   8.422  1.00  0.00     0.293 HD
ENDBRANCH   6  14
TORSDOF 4
ENDMDL
MODEL 8
REMARK VINA RESULT:     2.589      1.084      4.494
REMARK INTER + INTRA:           3.783
REMARK INTER:                   2.718
REMARK INTRA:                   1.065
REMARK UNBOUND:                 0.740
REMARK SMILES O=C([O-])C=Cc1ccc(O)c(O)c1
REMARK SMILES IDX 6 1 13 2 7 3 11 4 8 5 9 6 5 7 4 8 2 9 1 10 3 11 12 12 10 14
REMARK H PARENT 12 13 10 15
REMARK Flexibility Score: inf
ROOT
ATOM      1  C   UNL     1      17.002  96.414   8.525  1.00  0.00    -0.022 A 
ATOM      2  C   UNL     1      18.227  96.558   7.852  1.00  0.00     0.058 A 
ATOM      3  C   UNL     1      16.565  95.132   8.887  1.00  0.00     0.012 A 
ATOM      4  C   UNL     1      18.981  95.430   7.497  1.00  0.00     0.157 A 
ATOM      5  C   UNL     1      17.314  94.006   8.535  1.00  0.00     0.051 A 
ATOM      6  C   UNL     1      18.519  94.147   7.837  1.00  0.00     0.157 A 
ENDROOT
BRANCH   1   7
ATOM      7  C   UNL     1      16.221  97.592   8.954  1.00  0.00     0.010 C 
ATOM      8  C   UNL     1      16.724  98.812   9.194  1.00  0.00     0.025 C 
BRANCH   8   9
ATOM      9  C   UNL     1      18.102  99.244   8.893  1.00  0.00     0.064 C 
ATOM     10  O   UNL     1      19.062  98.713   9.511  1.00  0.00    -0.545 OA
ATOM     11  O   UNL     1      18.362 100.273   7.995  1.00  0.00    -0.545 OA
ENDBRANCH   8   9
ENDBRANCH   1   7
BRANCH   4  12
ATOM     12  O   UNL     1      20.187  95.579   6.814  1.00  0.00    -0.504 OA
ATOM     13  H   UNL     1      20.285  96.233   6.046  1.00  0.00     0.293 HD
ENDBRANCH   4  12
BRANCH   6  14
ATOM     14  O   UNL     1      19.242  93.005   7.496  1.00  0.00    -0.504 OA
ATOM     15  H   UNL     1      19.910  92.999   6.734  1.00  0.00     0.293 HD
ENDBRANCH   6  14
TORSDOF 4
ENDMDL
MODEL 9
REMARK VINA RESULT:     2.880      2.158      2.912
REMARK INTER + INTRA:           4.125
REMARK INTER:                   3.791
REMARK INTRA:                   0.334
REMARK UNBOUND:                 0.740
REMARK SMILES O=C([O-])C=Cc1ccc(O)c(O)c1
REMARK SMILES IDX 6 1 13 2 7 3 11 4 8 5 9 6 5 7 4 8 2 9 1 10 3 11 12 12 10 14
REMARK H PARENT 12 13 10 15
REMARK Flexibility Score: inf
ROOT
ATOM      1  C   UNL     1      17.535  95.627   8.036  1.00  0.00    -0.022 A 
ATOM      2  C   UNL     1      16.277  95.270   8.551  1.00  0.00     0.058 A 
ATOM      3  C   UNL     1      18.024  96.922   8.255  1.00  0.00     0.012 A 
ATOM      4  C   UNL     1      15.494  96.214   9.233  1.00  0.00     0.157 A 
ATOM      5  C   UNL     1      17.247  97.865   8.934  1.00  0.00     0.051 A 
ATOM      6  C   UNL     1      15.981  97.520   9.421  1.00  0.00     0.157 A 
ENDROOT
BRANCH   1   7
ATOM      7  C   UNL     1      18.395  94.633   7.362  1.00  0.00     0.010 C 
ATOM      8  C   UNL     1      18.973  93.577   7.955  1.00  0.00     0.025 C 
BRANCH   8   9
ATOM      9  C   UNL     1      18.702  93.113   9.329  1.00  0.00     0.064 C 
ATOM     10  O   UNL     1      19.664  92.951  10.125  1.00  0.00    -0.545 OA
ATOM     11  O   UNL     1      17.418  92.781   9.744  1.00  0.00    -0.545 OA
ENDBRANCH   8   9
ENDBRANCH   1   7
BRANCH   4  12
ATOM     12  O   UNL     1      14.240  95.859   9.727  1.00  0.00    -0.504 OA
ATOM     13  H   UNL     1      13.840  94.946   9.551  1.00  0.00     0.293 HD
ENDBRANCH   4  12
BRANCH   6  14
ATOM     14  O   UNL     1      15.227  98.482  10.091  1.00  0.00    -0.504 OA
ATOM     15  H   UNL     1      14.550  99.064   9.612  1.00  0.00     0.293 HD
ENDBRANCH   6  14
TORSDOF 4
ENDMDL
