MODEL 1
REMARK VINA RESULT:    92.219      0.000      0.000
REMARK INTER + INTRA:         100.586
REMARK INTER:                 100.306
REMARK INTRA:                   0.280
REMARK UNBOUND:                 0.280
REMARK SMILES C[C@H]1[C@H](C)CC[C@@]2(C(=O)[O-])CC[C@@]3(C)C(=CC[C@H]4[C@]5(C)CC[C@@H](O)C(C)(C)[C@@H]5CC[C@]43C)[C@@H]12
REMARK SMILES IDX 7 1 6 2 11 3 33 4 5 5 12 6 15 7 2 8 3 9 13 10 16 11 1 12
REMARK SMILES IDX 4 13 14 14 31 15 17 16 18 17 30 18 32 19 19 20 29 21 28 22
REMARK SMILES IDX 21 23 20 24 25 25 22 26 23 27 26 28 27 29 8 30 9 31 10 32
REMARK SMILES IDX 24 33
REMARK H PARENT 24 34
REMARK Flexibility Score: inf
ROOT
ATOM      1  C   UNL     1     -14.828  -2.820 -12.042  1.00  0.00     0.017 C 
ATOM      2  C   UNL     1     -15.002  -2.593 -10.514  1.00  0.00     0.014 C 
ATOM      3  C   UNL     1     -13.794  -1.831 -12.614  1.00  0.00     0.014 C 
ATOM      4  C   UNL     1     -14.373  -4.284 -12.381  1.00  0.00     0.030 C 
ATOM      5  C   UNL     1     -13.868  -3.162  -9.664  1.00  0.00     0.004 C 
ATOM      6  C   UNL     1     -13.740  -1.895 -14.145  1.00  0.00     0.013 C 
ATOM      7  C   UNL     1     -13.939  -4.455 -13.849  1.00  0.00    -0.063 C 
ATOM      8  C   UNL     1     -13.372  -4.975 -11.376  1.00  0.00    -0.003 C 
ATOM      9  C   UNL     1     -13.687  -4.667  -9.890  1.00  0.00    -0.011 C 
ATOM     10  C   UNL     1     -13.431  -3.314 -14.756  1.00  0.00    -0.006 C 
ATOM     11  C   UNL     1     -14.018  -5.693 -14.357  1.00  0.00    -0.027 C 
ATOM     12  C   UNL     1     -11.875  -4.754 -11.666  1.00  0.00     0.008 C 
ATOM     13  C   UNL     1     -14.887  -5.484  -9.376  1.00  0.00     0.008 C 
ATOM     14  C   UNL     1     -11.878  -3.429 -14.823  1.00  0.00     0.017 C 
ATOM     15  C   UNL     1     -14.061  -3.490 -16.236  1.00  0.00    -0.020 C 
ATOM     16  C   UNL     1     -13.737  -6.049 -15.785  1.00  0.00     0.032 C 
ATOM     17  C   UNL     1     -13.626  -4.889 -16.849  1.00  0.00     0.006 C 
ATOM     18  C   UNL     1     -15.620  -3.492 -16.187  1.00  0.00     0.008 C 
ATOM     19  C   UNL     1     -13.565  -2.297 -17.129  1.00  0.00     0.012 C 
ATOM     20  C   UNL     1     -14.310  -5.334 -18.238  1.00  0.00    -0.025 C 
ATOM     21  C   UNL     1     -16.300  -3.851 -17.517  1.00  0.00     0.005 C 
ATOM     22  C   UNL     1     -15.885  -5.227 -18.127  1.00  0.00     0.003 C 
ATOM     23  C   UNL     1     -13.825  -4.475 -19.453  1.00  0.00     0.010 C 
ATOM     24  C   UNL     1     -13.827  -6.803 -18.527  1.00  0.00     0.012 C 
ATOM     25  C   UNL     1     -16.664  -5.513 -19.492  1.00  0.00    -0.006 C 
ATOM     26  C   UNL     1     -14.539  -4.790 -20.780  1.00  0.00     0.033 C 
ATOM     27  C   UNL     1     -16.067  -4.664 -20.660  1.00  0.00     0.120 C 
ATOM     28  C   UNL     1     -16.649  -7.028 -19.847  1.00  0.00     0.014 C 
ATOM     29  C   UNL     1     -18.171  -5.143 -19.358  1.00  0.00     0.014 C 
ENDROOT
BRANCH   1  30
ATOM     30  C   UNL     1     -16.197  -2.500 -12.653  1.00  0.00     0.048 C 
ATOM     31  O   UNL     1     -16.369  -1.497 -13.396  1.00  0.00    -0.550 OA
ATOM     32  O   UNL     1     -17.262  -3.371 -12.454  1.00  0.00    -0.550 OA
ENDBRANCH   1  30
BRANCH  27  33
ATOM     33  O   UNL     1     -16.663  -5.032 -21.879  1.00  0.00    -0.393 OA
ATOM     34  H   UNL     1     -16.974  -5.970 -21.779  1.00  0.00     0.210 HD
ENDBRANCH  27  33
TORSDOF 2
ENDMDL
MODEL 2
REMARK VINA RESULT:    93.958      2.121      7.753
REMARK INTER + INTRA:         102.477
REMARK INTER:                 102.244
REMARK INTRA:                   0.233
REMARK UNBOUND:                 0.280
REMARK SMILES C[C@H]1[C@H](C)CC[C@@]2(C(=O)[O-])CC[C@@]3(C)C(=CC[C@H]4[C@]5(C)CC[C@@H](O)C(C)(C)[C@@H]5CC[C@]43C)[C@@H]12
REMARK SMILES IDX 7 1 6 2 11 3 33 4 5 5 12 6 15 7 2 8 3 9 13 10 16 11 1 12
REMARK SMILES IDX 4 13 14 14 31 15 17 16 18 17 30 18 32 19 19 20 29 21 28 22
REMARK SMILES IDX 21 23 20 24 25 25 22 26 23 27 26 28 27 29 8 30 9 31 10 32
REMARK SMILES IDX 24 33
REMARK H PARENT 24 34
REMARK Flexibility Score: inf
ROOT
ATOM      1  C   UNL     1     -14.707  -5.516 -18.491  1.00  0.00     0.017 C 
ATOM      2  C   UNL     1     -15.211  -6.260 -19.759  1.00  0.00     0.014 C 
ATOM      3  C   UNL     1     -13.658  -4.455 -18.874  1.00  0.00     0.014 C 
ATOM      4  C   UNL     1     -15.873  -4.816 -17.705  1.00  0.00     0.030 C 
ATOM      5  C   UNL     1     -16.206  -5.462 -20.598  1.00  0.00     0.004 C 
ATOM      6  C   UNL     1     -13.000  -3.839 -17.635  1.00  0.00     0.013 C 
ATOM      7  C   UNL     1     -15.371  -3.859 -16.608  1.00  0.00    -0.063 C 
ATOM      8  C   UNL     1     -17.038  -4.185 -18.563  1.00  0.00    -0.003 C 
ATOM      9  C   UNL     1     -17.439  -5.052 -19.783  1.00  0.00    -0.011 C 
ATOM     10  C   UNL     1     -13.986  -3.179 -16.598  1.00  0.00    -0.006 C 
ATOM     11  C   UNL     1     -16.213  -3.615 -15.594  1.00  0.00    -0.027 C 
ATOM     12  C   UNL     1     -16.835  -2.718 -18.989  1.00  0.00     0.008 C 
ATOM     13  C   UNL     1     -18.296  -6.263 -19.370  1.00  0.00     0.008 C 
ATOM     14  C   UNL     1     -14.187  -1.706 -17.067  1.00  0.00     0.017 C 
ATOM     15  C   UNL     1     -13.392  -3.202 -15.094  1.00  0.00    -0.020 C 
ATOM     16  C   UNL     1     -15.880  -2.796 -14.385  1.00  0.00     0.032 C 
ATOM     17  C   UNL     1     -14.370  -2.427 -14.111  1.00  0.00     0.006 C 
ATOM     18  C   UNL     1     -13.284  -4.660 -14.553  1.00  0.00     0.008 C 
ATOM     19  C   UNL     1     -11.966  -2.543 -15.115  1.00  0.00     0.012 C 
ATOM     20  C   UNL     1     -14.050  -2.504 -12.534  1.00  0.00    -0.025 C 
ATOM     21  C   UNL     1     -12.917  -4.765 -13.065  1.00  0.00     0.005 C 
ATOM     22  C   UNL     1     -13.875  -4.013 -12.088  1.00  0.00     0.003 C 
ATOM     23  C   UNL     1     -12.767  -1.702 -12.138  1.00  0.00     0.010 C 
ATOM     24  C   UNL     1     -15.247  -1.796 -11.797  1.00  0.00     0.012 C 
ATOM     25  C   UNL     1     -13.418  -4.203 -10.569  1.00  0.00    -0.006 C 
ATOM     26  C   UNL     1     -12.359  -1.844 -10.660  1.00  0.00     0.033 C 
ATOM     27  C   UNL     1     -12.175  -3.314 -10.248  1.00  0.00     0.120 C 
ATOM     28  C   UNL     1     -14.585  -3.899  -9.585  1.00  0.00     0.014 C 
ATOM     29  C   UNL     1     -13.029  -5.685 -10.290  1.00  0.00     0.014 C 
ENDROOT
BRANCH   1  30
ATOM     30  C   UNL     1     -14.023  -6.592 -17.640  1.00  0.00     0.048 C 
ATOM     31  O   UNL     1     -13.060  -7.272 -18.087  1.00  0.00    -0.550 OA
ATOM     32  O   UNL     1     -14.412  -6.778 -16.318  1.00  0.00    -0.550 OA
ENDBRANCH   1  30
BRANCH  27  33
ATOM     33  O   UNL     1     -11.875  -3.380  -8.875  1.00  0.00    -0.393 OA
ATOM     34  H   UNL     1     -11.258  -2.629  -8.675  1.00  0.00     0.210 HD
ENDBRANCH  27  33
TORSDOF 2
ENDMDL
