MODEL 1
REMARK VINA RESULT:    -5.606      0.000      0.000
REMARK INTER + INTRA:         -14.684
REMARK INTER:                 -12.815
REMARK INTRA:                  -1.869
REMARK UNBOUND:                -1.869
REMARK SMILES CCCCCCCCCCCCCCCCCCCCCCCC(=O)[O-]
REMARK SMILES IDX 13 1 14 2 15 3 16 4 17 5 18 6 19 7 20 8 21 9 22 10 23 11
REMARK SMILES IDX 24 12 25 13 26 14 12 15 11 16 10 17 9 18 8 19 7 20 6 21 5 22
REMARK SMILES IDX 4 23 3 24 2 25 1 26
REMARK H PARENT
REMARK Flexibility Score: inf
ROOT
ATOM      1  C   UNL     1     -15.903  36.229  16.873  1.00  0.00     0.000 C 
ENDROOT
BRANCH   1   2
ATOM      2  C   UNL     1     -16.630  37.574  17.052  1.00  0.00     0.000 C 
BRANCH   2   3
ATOM      3  C   UNL     1     -16.981  37.941  18.509  1.00  0.00     0.000 C 
BRANCH   3   4
ATOM      4  C   UNL     1     -17.216  39.440  18.772  1.00  0.00     0.000 C 
BRANCH   4   5
ATOM      5  C   UNL     1     -18.577  39.728  19.428  1.00  0.00     0.000 C 
BRANCH   5   6
ATOM      6  C   UNL     1     -18.546  40.963  20.347  1.00  0.00     0.000 C 
BRANCH   6   7
ATOM      7  C   UNL     1     -17.566  40.876  21.536  1.00  0.00     0.000 C 
BRANCH   7   8
ATOM      8  C   UNL     1     -16.501  41.987  21.594  1.00  0.00     0.000 C 
BRANCH   8   9
ATOM      9  C   UNL     1     -17.114  43.396  21.673  1.00  0.00     0.000 C 
BRANCH   9  10
ATOM     10  C   UNL     1     -16.225  44.386  22.443  1.00  0.00     0.006 C 
BRANCH  10  11
ATOM     11  C   UNL     1     -17.020  45.273  23.411  1.00  0.00     0.053 C 
BRANCH  11  12
ATOM     12  C   UNL     1     -16.273  46.537  23.701  1.00  0.00     0.041 C 
ATOM     13  O   UNL     1     -15.165  46.495  24.298  1.00  0.00    -0.550 OA
ATOM     14  O   UNL     1     -16.799  47.762  23.311  1.00  0.00    -0.550 OA
ENDBRANCH  11  12
ENDBRANCH  10  11
ENDBRANCH   9  10
ENDBRANCH   8   9
ENDBRANCH   7   8
ENDBRANCH   6   7
ENDBRANCH   5   6
ENDBRANCH   4   5
ENDBRANCH   3   4
ENDBRANCH   2   3
ENDBRANCH   1   2
BRANCH   1  15
ATOM     15  C   UNL     1     -15.378  36.017  15.446  1.00  0.00     0.000 C 
BRANCH  15  16
ATOM     16  C   UNL     1     -13.851  36.182  15.396  1.00  0.00     0.000 C 
BRANCH  16  17
ATOM     17  C   UNL     1     -13.368  36.866  14.107  1.00  0.00     0.000 C 
BRANCH  17  18
ATOM     18  C   UNL     1     -14.526  37.259  13.174  1.00  0.00    -0.000 C 
BRANCH  18  19
ATOM     19  C   UNL     1     -15.037  38.684  13.443  1.00  0.00    -0.000 C 
BRANCH  19  20
ATOM     20  C   UNL     1     -15.912  39.224  12.297  1.00  0.00    -0.000 C 
BRANCH  20  21
ATOM     21  C   UNL     1     -17.411  39.201  12.641  1.00  0.00    -0.000 C 
BRANCH  21  22
ATOM     22  C   UNL     1     -17.766  38.133  13.687  1.00  0.00    -0.000 C 
BRANCH  22  23
ATOM     23  C   UNL     1     -18.298  36.862  13.011  1.00  0.00    -0.000 C 
BRANCH  23  24
ATOM     24  C   UNL     1     -18.439  35.678  13.986  1.00  0.00    -0.000 C 
BRANCH  24  25
ATOM     25  C   UNL     1     -17.775  34.373  13.515  1.00  0.00    -0.003 C 
ATOM     26  C   UNL     1     -17.056  34.518  12.175  1.00  0.00     0.004 C 
ENDBRANCH  24  25
ENDBRANCH  23  24
ENDBRANCH  22  23
ENDBRANCH  21  22
ENDBRANCH  20  21
ENDBRANCH  19  20
ENDBRANCH  18  19
ENDBRANCH  17  18
ENDBRANCH  16  17
ENDBRANCH  15  16
ENDBRANCH   1  15
TORSDOF 22
ENDMDL
MODEL 2
REMARK VINA RESULT:    -5.494      4.791     10.777
REMARK INTER + INTRA:         -14.429
REMARK INTER:                 -12.255
REMARK INTRA:                  -2.174
REMARK UNBOUND:                -1.869
REMARK SMILES CCCCCCCCCCCCCCCCCCCCCCCC(=O)[O-]
REMARK SMILES IDX 13 1 14 2 15 3 16 4 17 5 18 6 19 7 20 8 21 9 22 10 23 11
REMARK SMILES IDX 24 12 25 13 26 14 12 15 11 16 10 17 9 18 8 19 7 20 6 21 5 22
REMARK SMILES IDX 4 23 3 24 2 25 1 26
REMARK H PARENT
REMARK Flexibility Score: inf
ROOT
ATOM      1  C   UNL     1     -16.617  37.305  16.814  1.00  0.00     0.000 C 
ENDROOT
BRANCH   1   2
ATOM      2  C   UNL     1     -16.025  35.895  16.637  1.00  0.00     0.000 C 
BRANCH   2   3
ATOM      3  C   UNL     1     -15.125  35.712  15.397  1.00  0.00     0.000 C 
BRANCH   3   4
ATOM      4  C   UNL     1     -14.097  36.833  15.157  1.00  0.00     0.000 C 
BRANCH   4   5
ATOM      5  C   UNL     1     -13.837  37.098  13.664  1.00  0.00     0.000 C 
BRANCH   5   6
ATOM      6  C   UNL     1     -13.760  38.598  13.329  1.00  0.00     0.000 C 
BRANCH   6   7
ATOM      7  C   UNL     1     -15.078  39.231  12.833  1.00  0.00     0.000 C 
BRANCH   7   8
ATOM      8  C   UNL     1     -16.162  38.233  12.390  1.00  0.00     0.000 C 
BRANCH   8   9
ATOM      9  C   UNL     1     -17.394  38.241  13.311  1.00  0.00     0.000 C 
BRANCH   9  10
ATOM     10  C   UNL     1     -18.125  36.889  13.335  1.00  0.00     0.006 C 
BRANCH  10  11
ATOM     11  C   UNL     1     -17.276  35.742  12.771  1.00  0.00     0.053 C 
BRANCH  11  12
ATOM     12  C   UNL     1     -17.850  34.417  13.167  1.00  0.00     0.041 C 
ATOM     13  O   UNL     1     -18.879  34.364  13.890  1.00  0.00    -0.550 OA
ATOM     14  O   UNL     1     -17.249  33.241  12.737  1.00  0.00    -0.550 OA
ENDBRANCH  11  12
ENDBRANCH  10  11
ENDBRANCH   9  10
ENDBRANCH   8   9
ENDBRANCH   7   8
ENDBRANCH   6   7
ENDBRANCH   5   6
ENDBRANCH   4   5
ENDBRANCH   3   4
ENDBRANCH   2   3
ENDBRANCH   1   2
BRANCH   1  15
ATOM     15  C   UNL     1     -16.904  37.655  18.281  1.00  0.00     0.000 C 
BRANCH  15  16
ATOM     16  C   UNL     1     -17.221  39.151  18.434  1.00  0.00     0.000 C 
BRANCH  16  17
ATOM     17  C   UNL     1     -18.464  39.411  19.300  1.00  0.00     0.000 C 
BRANCH  17  18
ATOM     18  C   UNL     1     -18.708  40.908  19.554  1.00  0.00    -0.000 C 
BRANCH  18  19
ATOM     19  C   UNL     1     -18.371  41.320  20.996  1.00  0.00    -0.000 C 
BRANCH  19  20
ATOM     20  C   UNL     1     -17.120  40.604  21.538  1.00  0.00    -0.000 C 
BRANCH  20  21
ATOM     21  C   UNL     1     -16.244  41.524  22.404  1.00  0.00    -0.000 C 
BRANCH  21  22
ATOM     22  C   UNL     1     -15.618  42.677  21.604  1.00  0.00    -0.000 C 
BRANCH  22  23
ATOM     23  C   UNL     1     -15.521  43.946  22.461  1.00  0.00    -0.000 C 
BRANCH  23  24
ATOM     24  C   UNL     1     -16.889  44.611  22.706  1.00  0.00    -0.000 C 
BRANCH  24  25
ATOM     25  C   UNL     1     -16.881  45.732  23.760  1.00  0.00    -0.003 C 
ATOM     26  C   UNL     1     -16.631  47.114  23.160  1.00  0.00     0.004 C 
ENDBRANCH  24  25
ENDBRANCH  23  24
ENDBRANCH  22  23
ENDBRANCH  21  22
ENDBRANCH  20  21
ENDBRANCH  19  20
ENDBRANCH  18  19
ENDBRANCH  17  18
ENDBRANCH  16  17
ENDBRANCH  15  16
ENDBRANCH   1  15
TORSDOF 22
ENDMDL
MODEL 3
REMARK VINA RESULT:    -5.454      5.500     11.107
REMARK INTER + INTRA:         -14.338
REMARK INTER:                 -12.278
REMARK INTRA:                  -2.060
REMARK UNBOUND:                -1.869
REMARK SMILES CCCCCCCCCCCCCCCCCCCCCCCC(=O)[O-]
REMARK SMILES IDX 13 1 14 2 15 3 16 4 17 5 18 6 19 7 20 8 21 9 22 10 23 11
REMARK SMILES IDX 24 12 25 13 26 14 12 15 11 16 10 17 9 18 8 19 7 20 6 21 5 22
REMARK SMILES IDX 4 23 3 24 2 25 1 26
REMARK H PARENT
REMARK Flexibility Score: inf
ROOT
ATOM      1  C   UNL     1     -16.619  37.392  16.868  1.00  0.00     0.000 C 
ENDROOT
BRANCH   1   2
ATOM      2  C   UNL     1     -15.794  36.209  16.331  1.00  0.00     0.000 C 
BRANCH   2   3
ATOM      3  C   UNL     1     -14.716  36.579  15.290  1.00  0.00     0.000 C 
BRANCH   3   4
ATOM      4  C   UNL     1     -15.244  37.224  13.996  1.00  0.00     0.000 C 
BRANCH   4   5
ATOM      5  C   UNL     1     -15.252  36.253  12.802  1.00  0.00     0.000 C 
BRANCH   5   6
ATOM      6  C   UNL     1     -16.660  36.035  12.220  1.00  0.00     0.000 C 
BRANCH   6   7
ATOM      7  C   UNL     1     -17.826  36.461  13.137  1.00  0.00     0.000 C 
BRANCH   7   8
ATOM      8  C   UNL     1     -18.448  35.332  13.979  1.00  0.00     0.000 C 
BRANCH   8   9
ATOM      9  C   UNL     1     -17.812  33.959  13.697  1.00  0.00     0.000 C 
BRANCH   9  10
ATOM     10  C   UNL     1     -18.836  32.814  13.736  1.00  0.00     0.006 C 
BRANCH  10  11
ATOM     11  C   UNL     1     -18.178  31.427  13.732  1.00  0.00     0.053 C 
BRANCH  11  12
ATOM     12  C   UNL     1     -18.574  30.653  14.951  1.00  0.00     0.041 C 
ATOM     13  O   UNL     1     -19.727  30.153  15.038  1.00  0.00    -0.550 OA
ATOM     14  O   UNL     1     -17.669  30.481  15.991  1.00  0.00    -0.550 OA
ENDBRANCH  11  12
ENDBRANCH  10  11
ENDBRANCH   9  10
ENDBRANCH   8   9
ENDBRANCH   7   8
ENDBRANCH   6   7
ENDBRANCH   5   6
ENDBRANCH   4   5
ENDBRANCH   3   4
ENDBRANCH   2   3
ENDBRANCH   1   2
BRANCH   1  15
ATOM     15  C   UNL     1     -16.786  37.363  18.394  1.00  0.00     0.000 C 
BRANCH  15  16
ATOM     16  C   UNL     1     -17.711  38.496  18.864  1.00  0.00     0.000 C 
BRANCH  16  17
ATOM     17  C   UNL     1     -17.045  39.879  18.791  1.00  0.00     0.000 C 
BRANCH  17  18
ATOM     18  C   UNL     1     -18.051  41.009  18.508  1.00  0.00    -0.000 C 
BRANCH  18  19
ATOM     19  C   UNL     1     -19.105  41.144  19.619  1.00  0.00    -0.000 C 
BRANCH  19  20
ATOM     20  C   UNL     1     -18.476  41.329  21.011  1.00  0.00    -0.000 C 
BRANCH  20  21
ATOM     21  C   UNL     1     -17.638  42.614  21.114  1.00  0.00    -0.000 C 
BRANCH  21  22
ATOM     22  C   UNL     1     -16.328  42.411  21.891  1.00  0.00    -0.000 C 
BRANCH  22  23
ATOM     23  C   UNL     1     -16.218  40.969  22.407  1.00  0.00    -0.000 C 
BRANCH  23  24
ATOM     24  C   UNL     1     -14.830  40.645  22.990  1.00  0.00    -0.000 C 
BRANCH  24  25
ATOM     25  C   UNL     1     -13.945  41.872  23.268  1.00  0.00    -0.003 C 
ATOM     26  C   UNL     1     -13.191  41.776  24.593  1.00  0.00     0.004 C 
ENDBRANCH  24  25
ENDBRANCH  23  24
ENDBRANCH  22  23
ENDBRANCH  21  22
ENDBRANCH  20  21
ENDBRANCH  19  20
ENDBRANCH  18  19
ENDBRANCH  17  18
ENDBRANCH  16  17
ENDBRANCH  15  16
ENDBRANCH   1  15
TORSDOF 22
ENDMDL
MODEL 4
REMARK VINA RESULT:    -5.415      5.326     11.072
REMARK INTER + INTRA:         -14.248
REMARK INTER:                 -12.886
REMARK INTRA:                  -1.362
REMARK UNBOUND:                -1.869
REMARK SMILES CCCCCCCCCCCCCCCCCCCCCCCC(=O)[O-]
REMARK SMILES IDX 13 1 14 2 15 3 16 4 17 5 18 6 19 7 20 8 21 9 22 10 23 11
REMARK SMILES IDX 24 12 25 13 26 14 12 15 11 16 10 17 9 18 8 19 7 20 6 21 5 22
REMARK SMILES IDX 4 23 3 24 2 25 1 26
REMARK H PARENT
REMARK Flexibility Score: inf
ROOT
ATOM      1  C   UNL     1     -16.108  37.306  15.385  1.00  0.00     0.000 C 
ENDROOT
BRANCH   1   2
ATOM      2  C   UNL     1     -17.228  37.108  14.349  1.00  0.00     0.000 C 
BRANCH   2   3
ATOM      3  C   UNL     1     -16.750  36.779  12.919  1.00  0.00     0.000 C 
BRANCH   3   4
ATOM      4  C   UNL     1     -17.169  35.397  12.385  1.00  0.00     0.000 C 
BRANCH   4   5
ATOM      5  C   UNL     1     -17.194  34.314  13.477  1.00  0.00     0.000 C 
BRANCH   5   6
ATOM      6  C   UNL     1     -18.588  33.688  13.664  1.00  0.00     0.000 C 
BRANCH   6   7
ATOM      7  C   UNL     1     -18.595  32.178  13.986  1.00  0.00     0.000 C 
BRANCH   7   8
ATOM      8  C   UNL     1     -19.989  31.534  14.089  1.00  0.00     0.000 C 
BRANCH   8   9
ATOM      9  C   UNL     1     -21.111  32.569  14.285  1.00  0.00     0.000 C 
BRANCH   9  10
ATOM     10  C   UNL     1     -22.500  31.921  14.401  1.00  0.00     0.006 C 
BRANCH  10  11
ATOM     11  C   UNL     1     -22.895  31.614  15.852  1.00  0.00     0.053 C 
BRANCH  11  12
ATOM     12  C   UNL     1     -23.204  32.878  16.592  1.00  0.00     0.041 C 
ATOM     13  O   UNL     1     -22.415  33.304  17.477  1.00  0.00    -0.550 OA
ATOM     14  O   UNL     1     -24.363  33.588  16.304  1.00  0.00    -0.550 OA
ENDBRANCH  11  12
ENDBRANCH  10  11
ENDBRANCH   9  10
ENDBRANCH   8   9
ENDBRANCH   7   8
ENDBRANCH   6   7
ENDBRANCH   5   6
ENDBRANCH   4   5
ENDBRANCH   3   4
ENDBRANCH   2   3
ENDBRANCH   1   2
BRANCH   1  15
ATOM     15  C   UNL     1     -16.135  36.257  16.506  1.00  0.00     0.000 C 
BRANCH  15  16
ATOM     16  C   UNL     1     -16.528  36.898  17.846  1.00  0.00     0.000 C 
BRANCH  16  17
ATOM     17  C   UNL     1     -16.910  38.380  17.707  1.00  0.00     0.000 C 
BRANCH  17  18
ATOM     18  C   UNL     1     -17.531  38.956  18.992  1.00  0.00    -0.000 C 
BRANCH  18  19
ATOM     19  C   UNL     1     -18.180  40.330  18.764  1.00  0.00    -0.000 C 
BRANCH  19  20
ATOM     20  C   UNL     1     -19.242  40.666  19.826  1.00  0.00    -0.000 C 
BRANCH  20  21
ATOM     21  C   UNL     1     -18.620  41.094  21.166  1.00  0.00    -0.000 C 
BRANCH  21  22
ATOM     22  C   UNL     1     -17.668  42.292  21.024  1.00  0.00    -0.000 C 
BRANCH  22  23
ATOM     23  C   UNL     1     -16.462  42.144  21.961  1.00  0.00    -0.000 C 
BRANCH  23  24
ATOM     24  C   UNL     1     -15.620  43.430  22.063  1.00  0.00    -0.000 C 
BRANCH  24  25
ATOM     25  C   UNL     1     -16.435  44.734  22.084  1.00  0.00    -0.003 C 
ATOM     26  C   UNL     1     -16.690  45.257  23.496  1.00  0.00     0.004 C 
ENDBRANCH  24  25
ENDBRANCH  23  24
ENDBRANCH  22  23
ENDBRANCH  21  22
ENDBRANCH  20  21
ENDBRANCH  19  20
ENDBRANCH  18  19
ENDBRANCH  17  18
ENDBRANCH  16  17
ENDBRANCH  15  16
ENDBRANCH   1  15
TORSDOF 22
ENDMDL
MODEL 5
REMARK VINA RESULT:    -5.403      1.904      3.354
REMARK INTER + INTRA:         -14.222
REMARK INTER:                 -12.518
REMARK INTRA:                  -1.704
REMARK UNBOUND:                -1.869
REMARK SMILES CCCCCCCCCCCCCCCCCCCCCCCC(=O)[O-]
REMARK SMILES IDX 13 1 14 2 15 3 16 4 17 5 18 6 19 7 20 8 21 9 22 10 23 11
REMARK SMILES IDX 24 12 25 13 26 14 12 15 11 16 10 17 9 18 8 19 7 20 6 21 5 22
REMARK SMILES IDX 4 23 3 24 2 25 1 26
REMARK H PARENT
REMARK Flexibility Score: inf
ROOT
ATOM      1  C   UNL     1     -14.251  36.548  15.471  1.00  0.00     0.000 C 
ENDROOT
BRANCH   1   2
ATOM      2  C   UNL     1     -15.658  35.963  15.688  1.00  0.00     0.000 C 
BRANCH   2   3
ATOM      3  C   UNL     1     -16.248  36.179  17.098  1.00  0.00     0.000 C 
BRANCH   3   4
ATOM      4  C   UNL     1     -16.675  37.623  17.420  1.00  0.00     0.000 C 
BRANCH   4   5
ATOM      5  C   UNL     1     -17.083  37.813  18.891  1.00  0.00     0.000 C 
BRANCH   5   6
ATOM      6  C   UNL     1     -17.062  39.289  19.329  1.00  0.00     0.000 C 
BRANCH   6   7
ATOM      7  C   UNL     1     -18.114  40.193  18.652  1.00  0.00     0.000 C 
BRANCH   7   8
ATOM      8  C   UNL     1     -19.116  40.866  19.608  1.00  0.00     0.000 C 
BRANCH   8   9
ATOM      9  C   UNL     1     -18.734  42.317  19.948  1.00  0.00     0.000 C 
BRANCH   9  10
ATOM     10  C   UNL     1     -17.704  42.407  21.086  1.00  0.00     0.006 C 
BRANCH  10  11
ATOM     11  C   UNL     1     -17.412  43.853  21.511  1.00  0.00     0.053 C 
BRANCH  11  12
ATOM     12  C   UNL     1     -16.173  43.914  22.351  1.00  0.00     0.041 C 
ATOM     13  O   UNL     1     -15.346  42.964  22.330  1.00  0.00    -0.550 OA
ATOM     14  O   UNL     1     -15.931  45.021  23.154  1.00  0.00    -0.550 OA
ENDBRANCH  11  12
ENDBRANCH  10  11
ENDBRANCH   9  10
ENDBRANCH   8   9
ENDBRANCH   7   8
ENDBRANCH   6   7
ENDBRANCH   5   6
ENDBRANCH   4   5
ENDBRANCH   3   4
ENDBRANCH   2   3
ENDBRANCH   1   2
BRANCH   1  15
ATOM     15  C   UNL     1     -13.860  36.633  13.988  1.00  0.00     0.000 C 
BRANCH  15  16
ATOM     16  C   UNL     1     -14.139  38.037  13.430  1.00  0.00     0.000 C 
BRANCH  16  17
ATOM     17  C   UNL     1     -15.593  38.215  12.964  1.00  0.00     0.000 C 
BRANCH  17  18
ATOM     18  C   UNL     1     -16.008  37.180  11.904  1.00  0.00    -0.000 C 
BRANCH  18  19
ATOM     19  C   UNL     1     -17.078  36.206  12.423  1.00  0.00    -0.000 C 
BRANCH  19  20
ATOM     20  C   UNL     1     -16.855  34.766  11.929  1.00  0.00    -0.000 C 
BRANCH  20  21
ATOM     21  C   UNL     1     -17.436  33.716  12.890  1.00  0.00    -0.000 C 
BRANCH  21  22
ATOM     22  C   UNL     1     -18.396  34.323  13.925  1.00  0.00    -0.000 C 
BRANCH  22  23
ATOM     23  C   UNL     1     -19.684  33.495  14.026  1.00  0.00    -0.000 C 
BRANCH  23  24
ATOM     24  C   UNL     1     -19.425  31.977  14.013  1.00  0.00    -0.000 C 
BRANCH  24  25
ATOM     25  C   UNL     1     -20.693  31.107  13.983  1.00  0.00    -0.003 C 
ATOM     26  C   UNL     1     -21.982  31.928  13.990  1.00  0.00     0.004 C 
ENDBRANCH  24  25
ENDBRANCH  23  24
ENDBRANCH  22  23
ENDBRANCH  21  22
ENDBRANCH  20  21
ENDBRANCH  19  20
ENDBRANCH  18  19
ENDBRANCH  17  18
ENDBRANCH  16  17
ENDBRANCH  15  16
ENDBRANCH   1  15
TORSDOF 22
ENDMDL
MODEL 6
REMARK VINA RESULT:    -5.388      4.559     10.663
REMARK INTER + INTRA:         -14.187
REMARK INTER:                 -12.873
REMARK INTRA:                  -1.315
REMARK UNBOUND:                -1.869
REMARK SMILES CCCCCCCCCCCCCCCCCCCCCCCC(=O)[O-]
REMARK SMILES IDX 13 1 14 2 15 3 16 4 17 5 18 6 19 7 20 8 21 9 22 10 23 11
REMARK SMILES IDX 24 12 25 13 26 14 12 15 11 16 10 17 9 18 8 19 7 20 6 21 5 22
REMARK SMILES IDX 4 23 3 24 2 25 1 26
REMARK H PARENT
REMARK Flexibility Score: inf
ROOT
ATOM      1  C   UNL     1     -16.677  37.510  17.045  1.00  0.00     0.000 C 
ENDROOT
BRANCH   1   2
ATOM      2  C   UNL     1     -16.061  36.119  16.811  1.00  0.00     0.000 C 
BRANCH   2   3
ATOM      3  C   UNL     1     -16.120  35.613  15.354  1.00  0.00     0.000 C 
BRANCH   3   4
ATOM      4  C   UNL     1     -15.162  36.314  14.373  1.00  0.00     0.000 C 
BRANCH   4   5
ATOM      5  C   UNL     1     -15.809  36.609  13.010  1.00  0.00     0.000 C 
BRANCH   5   6
ATOM      6  C   UNL     1     -17.296  36.991  13.126  1.00  0.00     0.000 C 
BRANCH   6   7
ATOM      7  C   UNL     1     -17.590  38.507  13.120  1.00  0.00     0.000 C 
BRANCH   7   8
ATOM      8  C   UNL     1     -16.628  39.360  12.273  1.00  0.00     0.000 C 
BRANCH   8   9
ATOM      9  C   UNL     1     -17.231  40.718  11.873  1.00  0.00     0.000 C 
BRANCH   9  10
ATOM     10  C   UNL     1     -17.418  40.857  10.353  1.00  0.00     0.006 C 
BRANCH  10  11
ATOM     11  C   UNL     1     -17.681  42.305   9.915  1.00  0.00     0.053 C 
BRANCH  11  12
ATOM     12  C   UNL     1     -16.506  42.848   9.162  1.00  0.00     0.041 C 
ATOM     13  O   UNL     1     -15.429  43.101   9.764  1.00  0.00    -0.550 OA
ATOM     14  O   UNL     1     -16.600  43.072   7.794  1.00  0.00    -0.550 OA
ENDBRANCH  11  12
ENDBRANCH  10  11
ENDBRANCH   9  10
ENDBRANCH   8   9
ENDBRANCH   7   8
ENDBRANCH   6   7
ENDBRANCH   5   6
ENDBRANCH   4   5
ENDBRANCH   3   4
ENDBRANCH   2   3
ENDBRANCH   1   2
BRANCH   1  15
ATOM     15  C   UNL     1     -17.048  37.761  18.514  1.00  0.00     0.000 C 
BRANCH  15  16
ATOM     16  C   UNL     1     -17.127  39.267  18.808  1.00  0.00     0.000 C 
BRANCH  16  17
ATOM     17  C   UNL     1     -18.478  39.687  19.408  1.00  0.00     0.000 C 
BRANCH  17  18
ATOM     18  C   UNL     1     -18.331  40.724  20.535  1.00  0.00    -0.000 C 
BRANCH  18  19
ATOM     19  C   UNL     1     -18.734  42.138  20.087  1.00  0.00    -0.000 C 
BRANCH  19  20
ATOM     20  C   UNL     1     -17.949  43.238  20.823  1.00  0.00    -0.000 C 
BRANCH  20  21
ATOM     21  C   UNL     1     -16.779  42.675  21.647  1.00  0.00    -0.000 C 
BRANCH  21  22
ATOM     22  C   UNL     1     -15.928  43.776  22.301  1.00  0.00    -0.000 C 
BRANCH  22  23
ATOM     23  C   UNL     1     -16.821  44.852  22.934  1.00  0.00    -0.000 C 
BRANCH  23  24
ATOM     24  C   UNL     1     -16.023  46.057  23.465  1.00  0.00    -0.000 C 
BRANCH  24  25
ATOM     25  C   UNL     1     -16.425  47.413  22.861  1.00  0.00    -0.003 C 
ATOM     26  C   UNL     1     -16.067  47.538  21.381  1.00  0.00     0.004 C 
ENDBRANCH  24  25
ENDBRANCH  23  24
ENDBRANCH  22  23
ENDBRANCH  21  22
ENDBRANCH  20  21
ENDBRANCH  19  20
ENDBRANCH  18  19
ENDBRANCH  17  18
ENDBRANCH  16  17
ENDBRANCH  15  16
ENDBRANCH   1  15
TORSDOF 22
ENDMDL
MODEL 7
REMARK VINA RESULT:    -5.354      3.712      6.734
REMARK INTER + INTRA:         -14.109
REMARK INTER:                 -12.204
REMARK INTRA:                  -1.905
REMARK UNBOUND:                -1.869
REMARK SMILES CCCCCCCCCCCCCCCCCCCCCCCC(=O)[O-]
REMARK SMILES IDX 13 1 14 2 15 3 16 4 17 5 18 6 19 7 20 8 21 9 22 10 23 11
REMARK SMILES IDX 24 12 25 13 26 14 12 15 11 16 10 17 9 18 8 19 7 20 6 21 5 22
REMARK SMILES IDX 4 23 3 24 2 25 1 26
REMARK H PARENT
REMARK Flexibility Score: inf
ROOT
ATOM      1  C   UNL     1     -17.656  36.794  13.033  1.00  0.00     0.000 C 
ENDROOT
BRANCH   1   2
ATOM      2  C   UNL     1     -16.498  36.226  12.193  1.00  0.00     0.000 C 
BRANCH   2   3
ATOM      3  C   UNL     1     -15.084  36.565  12.710  1.00  0.00     0.000 C 
BRANCH   3   4
ATOM      4  C   UNL     1     -15.033  37.257  14.084  1.00  0.00     0.000 C 
BRANCH   4   5
ATOM      5  C   UNL     1     -14.613  36.307  15.219  1.00  0.00     0.000 C 
BRANCH   5   6
ATOM      6  C   UNL     1     -15.720  36.107  16.270  1.00  0.00     0.000 C 
BRANCH   6   7
ATOM      7  C   UNL     1     -16.528  37.374  16.626  1.00  0.00     0.000 C 
BRANCH   7   8
ATOM      8  C   UNL     1     -16.877  37.534  18.116  1.00  0.00     0.000 C 
BRANCH   8   9
ATOM      9  C   UNL     1     -16.989  39.006  18.549  1.00  0.00     0.000 C 
BRANCH   9  10
ATOM     10  C   UNL     1     -18.171  39.257  19.499  1.00  0.00     0.006 C 
BRANCH  10  11
ATOM     11  C   UNL     1     -18.491  40.748  19.671  1.00  0.00     0.053 C 
BRANCH  11  12
ATOM     12  C   UNL     1     -17.874  41.277  20.928  1.00  0.00     0.041 C 
ATOM     13  O   UNL     1     -17.827  42.518  21.137  1.00  0.00    -0.550 OA
ATOM     14  O   UNL     1     -17.354  40.400  21.871  1.00  0.00    -0.550 OA
ENDBRANCH  11  12
ENDBRANCH  10  11
ENDBRANCH   9  10
ENDBRANCH   8   9
ENDBRANCH   7   8
ENDBRANCH   6   7
ENDBRANCH   5   6
ENDBRANCH   4   5
ENDBRANCH   3   4
ENDBRANCH   2   3
ENDBRANCH   1   2
BRANCH   1  15
ATOM     15  C   UNL     1     -18.430  35.711  13.797  1.00  0.00     0.000 C 
BRANCH  15  16
ATOM     16  C   UNL     1     -17.763  34.337  13.623  1.00  0.00     0.000 C 
BRANCH  16  17
ATOM     17  C   UNL     1     -18.701  33.171  13.971  1.00  0.00     0.000 C 
BRANCH  17  18
ATOM     18  C   UNL     1     -18.127  31.804  13.559  1.00  0.00    -0.000 C 
BRANCH  18  19
ATOM     19  C   UNL     1     -18.765  30.642  14.338  1.00  0.00    -0.000 C 
BRANCH  19  20
ATOM     20  C   UNL     1     -19.943  30.002  13.583  1.00  0.00    -0.000 C 
BRANCH  20  21
ATOM     21  C   UNL     1     -21.298  30.291  14.250  1.00  0.00    -0.000 C 
BRANCH  21  22
ATOM     22  C   UNL     1     -21.800  31.718  13.985  1.00  0.00    -0.000 C 
BRANCH  22  23
ATOM     23  C   UNL     1     -22.017  32.474  15.303  1.00  0.00    -0.000 C 
BRANCH  23  24
ATOM     24  C   UNL     1     -23.285  32.022  16.052  1.00  0.00    -0.000 C 
BRANCH  24  25
ATOM     25  C   UNL     1     -24.015  33.140  16.816  1.00  0.00    -0.003 C 
ATOM     26  C   UNL     1     -25.266  33.638  16.095  1.00  0.00     0.004 C 
ENDBRANCH  24  25
ENDBRANCH  23  24
ENDBRANCH  22  23
ENDBRANCH  21  22
ENDBRANCH  20  21
ENDBRANCH  19  20
ENDBRANCH  18  19
ENDBRANCH  17  18
ENDBRANCH  16  17
ENDBRANCH  15  16
ENDBRANCH   1  15
TORSDOF 22
ENDMDL
MODEL 8
REMARK VINA RESULT:    -5.301      4.984     10.435
REMARK INTER + INTRA:         -13.988
REMARK INTER:                 -12.619
REMARK INTRA:                  -1.370
REMARK UNBOUND:                -1.869
REMARK SMILES CCCCCCCCCCCCCCCCCCCCCCCC(=O)[O-]
REMARK SMILES IDX 13 1 14 2 15 3 16 4 17 5 18 6 19 7 20 8 21 9 22 10 23 11
REMARK SMILES IDX 24 12 25 13 26 14 12 15 11 16 10 17 9 18 8 19 7 20 6 21 5 22
REMARK SMILES IDX 4 23 3 24 2 25 1 26
REMARK H PARENT
REMARK Flexibility Score: inf
ROOT
ATOM      1  C   UNL     1     -17.491  36.173  14.118  1.00  0.00     0.000 C 
ENDROOT
BRANCH   1   2
ATOM      2  C   UNL     1     -17.016  36.176  12.654  1.00  0.00     0.000 C 
BRANCH   2   3
ATOM      3  C   UNL     1     -15.908  37.198  12.325  1.00  0.00     0.000 C 
BRANCH   3   4
ATOM      4  C   UNL     1     -16.054  38.571  13.007  1.00  0.00     0.000 C 
BRANCH   4   5
ATOM      5  C   UNL     1     -15.961  39.745  12.018  1.00  0.00     0.000 C 
BRANCH   5   6
ATOM      6  C   UNL     1     -17.342  40.281  11.599  1.00  0.00     0.000 C 
BRANCH   6   7
ATOM      7  C   UNL     1     -17.380  41.021  10.244  1.00  0.00     0.000 C 
BRANCH   7   8
ATOM      8  C   UNL     1     -16.646  40.316   9.089  1.00  0.00     0.000 C 
BRANCH   8   9
ATOM      9  C   UNL     1     -15.492  41.156   8.514  1.00  0.00     0.000 C 
BRANCH   9  10
ATOM     10  C   UNL     1     -15.934  42.040   7.337  1.00  0.00     0.006 C 
BRANCH  10  11
ATOM     11  C   UNL     1     -15.326  43.449   7.390  1.00  0.00     0.053 C 
BRANCH  11  12
ATOM     12  C   UNL     1     -16.276  44.408   8.037  1.00  0.00     0.041 C 
ATOM     13  O   UNL     1     -17.498  44.120   8.137  1.00  0.00    -0.550 OA
ATOM     14  O   UNL     1     -15.813  45.620   8.533  1.00  0.00    -0.550 OA
ENDBRANCH  11  12
ENDBRANCH  10  11
ENDBRANCH   9  10
ENDBRANCH   8   9
ENDBRANCH   7   8
ENDBRANCH   6   7
ENDBRANCH   5   6
ENDBRANCH   4   5
ENDBRANCH   3   4
ENDBRANCH   2   3
ENDBRANCH   1   2
BRANCH   1  15
ATOM     15  C   UNL     1     -16.507  35.470  15.066  1.00  0.00     0.000 C 
BRANCH  15  16
ATOM     16  C   UNL     1     -15.762  36.493  15.937  1.00  0.00     0.000 C 
BRANCH  16  17
ATOM     17  C   UNL     1     -16.437  36.719  17.299  1.00  0.00     0.000 C 
BRANCH  17  18
ATOM     18  C   UNL     1     -16.976  38.151  17.464  1.00  0.00    -0.000 C 
BRANCH  18  19
ATOM     19  C   UNL     1     -17.246  38.509  18.935  1.00  0.00    -0.000 C 
BRANCH  19  20
ATOM     20  C   UNL     1     -18.158  39.739  19.086  1.00  0.00    -0.000 C 
BRANCH  20  21
ATOM     21  C   UNL     1     -17.422  40.950  19.682  1.00  0.00    -0.000 C 
BRANCH  21  22
ATOM     22  C   UNL     1     -17.862  41.265  21.120  1.00  0.00    -0.000 C 
BRANCH  22  23
ATOM     23  C   UNL     1     -16.645  41.510  22.023  1.00  0.00    -0.000 C 
BRANCH  23  24
ATOM     24  C   UNL     1     -16.036  42.913  21.840  1.00  0.00    -0.000 C 
BRANCH  24  25
ATOM     25  C   UNL     1     -17.049  44.068  21.895  1.00  0.00    -0.003 C 
ATOM     26  C   UNL     1     -16.726  45.096  22.979  1.00  0.00     0.004 C 
ENDBRANCH  24  25
ENDBRANCH  23  24
ENDBRANCH  22  23
ENDBRANCH  21  22
ENDBRANCH  20  21
ENDBRANCH  19  20
ENDBRANCH  18  19
ENDBRANCH  17  18
ENDBRANCH  16  17
ENDBRANCH  15  16
ENDBRANCH   1  15
TORSDOF 22
ENDMDL
MODEL 9
REMARK VINA RESULT:    -5.295      4.021      7.468
REMARK INTER + INTRA:         -13.975
REMARK INTER:                 -11.107
REMARK INTRA:                  -2.868
REMARK UNBOUND:                -1.869
REMARK SMILES CCCCCCCCCCCCCCCCCCCCCCCC(=O)[O-]
REMARK SMILES IDX 13 1 14 2 15 3 16 4 17 5 18 6 19 7 20 8 21 9 22 10 23 11
REMARK SMILES IDX 24 12 25 13 26 14 12 15 11 16 10 17 9 18 8 19 7 20 6 21 5 22
REMARK SMILES IDX 4 23 3 24 2 25 1 26
REMARK H PARENT
REMARK Flexibility Score: inf
ROOT
ATOM      1  C   UNL     1     -17.270  39.679  12.434  1.00  0.00     0.000 C 
ENDROOT
BRANCH   1   2
ATOM      2  C   UNL     1     -16.907  38.368  13.154  1.00  0.00     0.000 C 
BRANCH   2   3
ATOM      3  C   UNL     1     -16.206  37.310  12.277  1.00  0.00     0.000 C 
BRANCH   3   4
ATOM      4  C   UNL     1     -14.946  36.674  12.892  1.00  0.00     0.000 C 
BRANCH   4   5
ATOM      5  C   UNL     1     -14.587  37.263  14.267  1.00  0.00     0.000 C 
BRANCH   5   6
ATOM      6  C   UNL     1     -14.575  36.204  15.384  1.00  0.00     0.000 C 
BRANCH   6   7
ATOM      7  C   UNL     1     -15.952  35.877  15.999  1.00  0.00     0.000 C 
BRANCH   7   8
ATOM      8  C   UNL     1     -16.233  36.527  17.366  1.00  0.00     0.000 C 
BRANCH   8   9
ATOM      9  C   UNL     1     -16.941  37.888  17.246  1.00  0.00     0.000 C 
BRANCH   9  10
ATOM     10  C   UNL     1     -17.252  38.516  18.614  1.00  0.00     0.006 C 
BRANCH  10  11
ATOM     11  C   UNL     1     -17.425  40.040  18.544  1.00  0.00     0.053 C 
BRANCH  11  12
ATOM     12  C   UNL     1     -17.804  40.589  19.884  1.00  0.00     0.041 C 
ATOM     13  O   UNL     1     -17.399  40.028  20.936  1.00  0.00    -0.550 OA
ATOM     14  O   UNL     1     -18.605  41.721  19.971  1.00  0.00    -0.550 OA
ENDBRANCH  11  12
ENDBRANCH  10  11
ENDBRANCH   9  10
ENDBRANCH   8   9
ENDBRANCH   7   8
ENDBRANCH   6   7
ENDBRANCH   5   6
ENDBRANCH   4   5
ENDBRANCH   3   4
ENDBRANCH   2   3
ENDBRANCH   1   2
BRANCH   1  15
ATOM     15  C   UNL     1     -16.085  40.292  11.673  1.00  0.00     0.000 C 
BRANCH  15  16
ATOM     16  C   UNL     1     -16.483  40.640  10.230  1.00  0.00     0.000 C 
BRANCH  16  17
ATOM     17  C   UNL     1     -17.762  41.489  10.153  1.00  0.00     0.000 C 
BRANCH  17  18
ATOM     18  C   UNL     1     -17.666  42.611   9.105  1.00  0.00    -0.000 C 
BRANCH  18  19
ATOM     19  C   UNL     1     -16.692  42.267   7.966  1.00  0.00    -0.000 C 
BRANCH  19  20
ATOM     20  C   UNL     1     -16.030  43.517   7.357  1.00  0.00    -0.000 C 
BRANCH  20  21
ATOM     21  C   UNL     1     -14.503  43.378   7.242  1.00  0.00    -0.000 C 
BRANCH  21  22
ATOM     22  C   UNL     1     -13.982  42.049   7.810  1.00  0.00    -0.000 C 
BRANCH  22  23
ATOM     23  C   UNL     1     -12.995  42.297   8.959  1.00  0.00    -0.000 C 
BRANCH  23  24
ATOM     24  C   UNL     1     -13.322  43.566   9.768  1.00  0.00    -0.000 C 
BRANCH  24  25
ATOM     25  C   UNL     1     -14.034  43.311  11.108  1.00  0.00    -0.003 C 
ATOM     26  C   UNL     1     -15.265  44.194  11.308  1.00  0.00     0.004 C 
ENDBRANCH  24  25
ENDBRANCH  23  24
ENDBRANCH  22  23
ENDBRANCH  21  22
ENDBRANCH  20  21
ENDBRANCH  19  20
ENDBRANCH  18  19
ENDBRANCH  17  18
ENDBRANCH  16  17
ENDBRANCH  15  16
ENDBRANCH   1  15
TORSDOF 22
ENDMDL
