MODEL 1
REMARK VINA RESULT:    -2.505      0.000      0.000
REMARK INTER + INTRA:          -6.952
REMARK INTER:                  -5.726
REMARK INTRA:                  -1.226
REMARK UNBOUND:                -1.226
REMARK SMILES CCCCCCCCCCCCCCCCCCCCCCCC(=O)[O-]
REMARK SMILES IDX 13 1 14 2 15 3 16 4 17 5 18 6 19 7 20 8 21 9 22 10 23 11
REMARK SMILES IDX 24 12 25 13 26 14 12 15 11 16 10 17 9 18 8 19 7 20 6 21 5 22
REMARK SMILES IDX 4 23 3 24 2 25 1 26
REMARK H PARENT
REMARK Flexibility Score: inf
ROOT
ATOM      1  C   UNL     1      -0.291 -21.992  16.324  1.00  0.00     0.000 C 
ENDROOT
BRANCH   1   2
ATOM      2  C   UNL     1      -1.735 -21.876  15.797  1.00  0.00     0.000 C 
BRANCH   2   3
ATOM      3  C   UNL     1      -2.643 -23.073  16.134  1.00  0.00     0.000 C 
BRANCH   3   4
ATOM      4  C   UNL     1      -4.159 -22.802  16.025  1.00  0.00     0.000 C 
BRANCH   4   5
ATOM      5  C   UNL     1      -4.921 -22.764  17.363  1.00  0.00     0.000 C 
BRANCH   5   6
ATOM      6  C   UNL     1      -6.448 -22.721  17.185  1.00  0.00     0.000 C 
BRANCH   6   7
ATOM      7  C   UNL     1      -7.194 -22.661  18.528  1.00  0.00     0.000 C 
BRANCH   7   8
ATOM      8  C   UNL     1      -8.497 -21.845  18.451  1.00  0.00     0.000 C 
BRANCH   8   9
ATOM      9  C   UNL     1      -9.669 -22.535  19.165  1.00  0.00     0.000 C 
BRANCH   9  10
ATOM     10  C   UNL     1     -10.518 -21.554  19.990  1.00  0.00     0.006 C 
BRANCH  10  11
ATOM     11  C   UNL     1     -10.263 -20.093  19.600  1.00  0.00     0.053 C 
BRANCH  11  12
ATOM     12  C   UNL     1     -10.514 -19.156  20.742  1.00  0.00     0.041 C 
ATOM     13  O   UNL     1     -10.984 -19.593  21.826  1.00  0.00    -0.550 OA
ATOM     14  O   UNL     1     -10.263 -17.798  20.598  1.00  0.00    -0.550 OA
ENDBRANCH  11  12
ENDBRANCH  10  11
ENDBRANCH   9  10
ENDBRANCH   8   9
ENDBRANCH   7   8
ENDBRANCH   6   7
ENDBRANCH   5   6
ENDBRANCH   4   5
ENDBRANCH   3   4
ENDBRANCH   2   3
ENDBRANCH   1   2
BRANCH   1  15
ATOM     15  C   UNL     1       0.523 -23.123  15.661  1.00  0.00     0.000 C 
BRANCH  15  16
ATOM     16  C   UNL     1       1.486 -22.605  14.583  1.00  0.00     0.000 C 
BRANCH  16  17
ATOM     17  C   UNL     1       2.927 -23.046  14.880  1.00  0.00     0.000 C 
BRANCH  17  18
ATOM     18  C   UNL     1       3.528 -22.329  16.099  1.00  0.00    -0.000 C 
BRANCH  18  19
ATOM     19  C   UNL     1       5.062 -22.406  16.133  1.00  0.00    -0.000 C 
BRANCH  19  20
ATOM     20  C   UNL     1       5.622 -21.648  17.347  1.00  0.00    -0.000 C 
BRANCH  20  21
ATOM     21  C   UNL     1       7.158 -21.612  17.366  1.00  0.00    -0.000 C 
BRANCH  21  22
ATOM     22  C   UNL     1       7.787 -22.638  16.407  1.00  0.00    -0.000 C 
BRANCH  22  23
ATOM     23  C   UNL     1       8.838 -21.995  15.476  1.00  0.00    -0.000 C 
BRANCH  23  24
ATOM     24  C   UNL     1       8.340 -20.719  14.774  1.00  0.00    -0.000 C 
BRANCH  24  25
ATOM     25  C   UNL     1       8.210 -20.886  13.254  1.00  0.00    -0.003 C 
ATOM     26  C   UNL     1       6.892 -21.560  12.884  1.00  0.00     0.004 C 
ENDBRANCH  24  25
ENDBRANCH  23  24
ENDBRANCH  22  23
ENDBRANCH  21  22
ENDBRANCH  20  21
ENDBRANCH  19  20
ENDBRANCH  18  19
ENDBRANCH  17  18
ENDBRANCH  16  17
ENDBRANCH  15  16
ENDBRANCH   1  15
TORSDOF 22
ENDMDL
MODEL 2
REMARK VINA RESULT:    -2.191      5.647     14.766
REMARK INTER + INTRA:          -6.235
REMARK INTER:                  -5.213
REMARK INTRA:                  -1.022
REMARK UNBOUND:                -1.226
REMARK SMILES CCCCCCCCCCCCCCCCCCCCCCCC(=O)[O-]
REMARK SMILES IDX 13 1 14 2 15 3 16 4 17 5 18 6 19 7 20 8 21 9 22 10 23 11
REMARK SMILES IDX 24 12 25 13 26 14 12 15 11 16 10 17 9 18 8 19 7 20 6 21 5 22
REMARK SMILES IDX 4 23 3 24 2 25 1 26
REMARK H PARENT
REMARK Flexibility Score: inf
ROOT
ATOM      1  C   UNL     1      -0.678 -22.026  16.026  1.00  0.00     0.000 C 
ENDROOT
BRANCH   1   2
ATOM      2  C   UNL     1       0.403 -22.533  15.051  1.00  0.00     0.000 C 
BRANCH   2   3
ATOM      3  C   UNL     1       1.655 -23.125  15.725  1.00  0.00     0.000 C 
BRANCH   3   4
ATOM      4  C   UNL     1       2.964 -22.342  15.491  1.00  0.00     0.000 C 
BRANCH   4   5
ATOM      5  C   UNL     1       4.041 -23.085  14.679  1.00  0.00     0.000 C 
BRANCH   5   6
ATOM      6  C   UNL     1       5.422 -23.072  15.357  1.00  0.00     0.000 C 
BRANCH   6   7
ATOM      7  C   UNL     1       5.578 -21.910  16.351  1.00  0.00     0.000 C 
BRANCH   7   8
ATOM      8  C   UNL     1       6.904 -21.964  17.131  1.00  0.00     0.000 C 
BRANCH   8   9
ATOM      9  C   UNL     1       7.997 -22.742  16.382  1.00  0.00     0.000 C 
BRANCH   9  10
ATOM     10  C   UNL     1       8.910 -21.824  15.551  1.00  0.00     0.006 C 
BRANCH  10  11
ATOM     11  C   UNL     1       8.735 -22.039  14.043  1.00  0.00     0.053 C 
BRANCH  11  12
ATOM     12  C   UNL     1       8.252 -20.800  13.352  1.00  0.00     0.041 C 
ATOM     13  O   UNL     1       8.751 -19.680  13.643  1.00  0.00    -0.550 OA
ATOM     14  O   UNL     1       7.229 -20.877  12.416  1.00  0.00    -0.550 OA
ENDBRANCH  11  12
ENDBRANCH  10  11
ENDBRANCH   9  10
ENDBRANCH   8   9
ENDBRANCH   7   8
ENDBRANCH   6   7
ENDBRANCH   5   6
ENDBRANCH   4   5
ENDBRANCH   3   4
ENDBRANCH   2   3
ENDBRANCH   1   2
BRANCH   1  15
ATOM     15  C   UNL     1      -1.892 -22.970  16.152  1.00  0.00     0.000 C 
BRANCH  15  16
ATOM     16  C   UNL     1      -3.226 -22.255  15.891  1.00  0.00     0.000 C 
BRANCH  16  17
ATOM     17  C   UNL     1      -4.406 -23.098  16.394  1.00  0.00     0.000 C 
BRANCH  17  18
ATOM     18  C   UNL     1      -5.680 -22.266  16.611  1.00  0.00    -0.000 C 
BRANCH  18  19
ATOM     19  C   UNL     1      -6.964 -23.079  16.383  1.00  0.00    -0.000 C 
BRANCH  19  20
ATOM     20  C   UNL     1      -8.140 -22.479  17.168  1.00  0.00    -0.000 C 
BRANCH  20  21
ATOM     21  C   UNL     1      -8.217 -23.002  18.611  1.00  0.00    -0.000 C 
BRANCH  21  22
ATOM     22  C   UNL     1      -9.239 -22.233  19.466  1.00  0.00    -0.000 C 
BRANCH  22  23
ATOM     23  C   UNL     1      -9.211 -22.678  20.945  1.00  0.00    -0.000 C 
BRANCH  23  24
ATOM     24  C   UNL     1      -9.729 -21.606  21.920  1.00  0.00    -0.000 C 
BRANCH  24  25
ATOM     25  C   UNL     1     -10.723 -20.635  21.268  1.00  0.00    -0.003 C 
ATOM     26  C   UNL     1     -10.551 -19.221  21.814  1.00  0.00     0.004 C 
ENDBRANCH  24  25
ENDBRANCH  23  24
ENDBRANCH  22  23
ENDBRANCH  21  22
ENDBRANCH  20  21
ENDBRANCH  19  20
ENDBRANCH  18  19
ENDBRANCH  17  18
ENDBRANCH  16  17
ENDBRANCH  15  16
ENDBRANCH   1  15
TORSDOF 22
ENDMDL
MODEL 3
REMARK VINA RESULT:    -1.937      1.301      1.899
REMARK INTER + INTRA:          -5.655
REMARK INTER:                  -4.886
REMARK INTRA:                  -0.769
REMARK UNBOUND:                -1.226
REMARK SMILES CCCCCCCCCCCCCCCCCCCCCCCC(=O)[O-]
REMARK SMILES IDX 13 1 14 2 15 3 16 4 17 5 18 6 19 7 20 8 21 9 22 10 23 11
REMARK SMILES IDX 24 12 25 13 26 14 12 15 11 16 10 17 9 18 8 19 7 20 6 21 5 22
REMARK SMILES IDX 4 23 3 24 2 25 1 26
REMARK H PARENT
REMARK Flexibility Score: inf
ROOT
ATOM      1  C   UNL     1      -1.945 -22.002  15.782  1.00  0.00     0.000 C 
ENDROOT
BRANCH   1   2
ATOM      2  C   UNL     1      -3.389 -22.502  15.986  1.00  0.00     0.000 C 
BRANCH   2   3
ATOM      3  C   UNL     1      -4.483 -21.543  15.484  1.00  0.00     0.000 C 
BRANCH   3   4
ATOM      4  C   UNL     1      -5.789 -21.541  16.307  1.00  0.00     0.000 C 
BRANCH   4   5
ATOM      5  C   UNL     1      -6.534 -22.888  16.366  1.00  0.00     0.000 C 
BRANCH   5   6
ATOM      6  C   UNL     1      -7.945 -22.770  16.966  1.00  0.00     0.000 C 
BRANCH   6   7
ATOM      7  C   UNL     1      -7.962 -21.959  18.271  1.00  0.00     0.000 C 
BRANCH   7   8
ATOM      8  C   UNL     1      -9.292 -22.087  19.036  1.00  0.00     0.000 C 
BRANCH   8   9
ATOM      9  C   UNL     1      -9.087 -22.282  20.546  1.00  0.00     0.000 C 
BRANCH   9  10
ATOM     10  C   UNL     1     -10.242 -21.701  21.379  1.00  0.00     0.006 C 
BRANCH  10  11
ATOM     11  C   UNL     1     -10.761 -20.375  20.808  1.00  0.00     0.053 C 
BRANCH  11  12
ATOM     12  C   UNL     1     -10.271 -19.197  21.594  1.00  0.00     0.041 C 
ATOM     13  O   UNL     1     -10.208 -19.258  22.851  1.00  0.00    -0.550 OA
ATOM     14  O   UNL     1      -9.916 -18.023  20.943  1.00  0.00    -0.550 OA
ENDBRANCH  11  12
ENDBRANCH  10  11
ENDBRANCH   9  10
ENDBRANCH   8   9
ENDBRANCH   7   8
ENDBRANCH   6   7
ENDBRANCH   5   6
ENDBRANCH   4   5
ENDBRANCH   3   4
ENDBRANCH   2   3
ENDBRANCH   1   2
BRANCH   1  15
ATOM     15  C   UNL     1      -0.887 -23.125  15.823  1.00  0.00     0.000 C 
BRANCH  15  16
ATOM     16  C   UNL     1       0.215 -22.936  14.770  1.00  0.00     0.000 C 
BRANCH  16  17
ATOM     17  C   UNL     1       1.606 -23.021  15.413  1.00  0.00     0.000 C 
BRANCH  17  18
ATOM     18  C   UNL     1       2.706 -22.408  14.532  1.00  0.00    -0.000 C 
BRANCH  18  19
ATOM     19  C   UNL     1       4.062 -23.109  14.705  1.00  0.00    -0.000 C 
BRANCH  19  20
ATOM     20  C   UNL     1       5.050 -22.668  13.614  1.00  0.00    -0.000 C 
BRANCH  20  21
ATOM     21  C   UNL     1       6.500 -23.068  13.931  1.00  0.00    -0.000 C 
BRANCH  21  22
ATOM     22  C   UNL     1       6.953 -22.598  15.324  1.00  0.00    -0.000 C 
BRANCH  22  23
ATOM     23  C   UNL     1       7.825 -21.326  15.253  1.00  0.00    -0.000 C 
BRANCH  23  24
ATOM     24  C   UNL     1       7.883 -20.697  13.849  1.00  0.00    -0.000 C 
BRANCH  24  25
ATOM     25  C   UNL     1       9.025 -19.684  13.695  1.00  0.00    -0.003 C 
ATOM     26  C   UNL     1       9.050 -19.091  12.289  1.00  0.00     0.004 C 
ENDBRANCH  24  25
ENDBRANCH  23  24
ENDBRANCH  22  23
ENDBRANCH  21  22
ENDBRANCH  20  21
ENDBRANCH  19  20
ENDBRANCH  18  19
ENDBRANCH  17  18
ENDBRANCH  16  17
ENDBRANCH  15  16
ENDBRANCH   1  15
TORSDOF 22
ENDMDL
MODEL 4
REMARK VINA RESULT:    -1.750      5.825     14.696
REMARK INTER + INTRA:          -5.226
REMARK INTER:                  -4.426
REMARK INTRA:                  -0.799
REMARK UNBOUND:                -1.226
REMARK SMILES CCCCCCCCCCCCCCCCCCCCCCCC(=O)[O-]
REMARK SMILES IDX 13 1 14 2 15 3 16 4 17 5 18 6 19 7 20 8 21 9 22 10 23 11
REMARK SMILES IDX 24 12 25 13 26 14 12 15 11 16 10 17 9 18 8 19 7 20 6 21 5 22
REMARK SMILES IDX 4 23 3 24 2 25 1 26
REMARK H PARENT
REMARK Flexibility Score: inf
ROOT
ATOM      1  C   UNL     1      -0.028 -23.125  15.756  1.00  0.00     0.000 C 
ENDROOT
BRANCH   1   2
ATOM      2  C   UNL     1       0.874 -22.290  14.826  1.00  0.00     0.000 C 
BRANCH   2   3
ATOM      3  C   UNL     1       1.984 -23.086  14.115  1.00  0.00     0.000 C 
BRANCH   3   4
ATOM      4  C   UNL     1       3.416 -22.547  14.318  1.00  0.00     0.000 C 
BRANCH   4   5
ATOM      5  C   UNL     1       4.038 -22.827  15.699  1.00  0.00     0.000 C 
BRANCH   5   6
ATOM      6  C   UNL     1       5.575 -22.782  15.688  1.00  0.00     0.000 C 
BRANCH   6   7
ATOM      7  C   UNL     1       6.136 -21.663  16.579  1.00  0.00     0.000 C 
BRANCH   7   8
ATOM      8  C   UNL     1       7.631 -21.847  16.899  1.00  0.00     0.000 C 
BRANCH   8   9
ATOM      9  C   UNL     1       8.512 -21.811  15.641  1.00  0.00     0.000 C 
BRANCH   9  10
ATOM     10  C   UNL     1       8.257 -20.565  14.777  1.00  0.00     0.006 C 
BRANCH  10  11
ATOM     11  C   UNL     1       8.986 -20.632  13.429  1.00  0.00     0.053 C 
BRANCH  11  12
ATOM     12  C   UNL     1       8.061 -21.001  12.310  1.00  0.00     0.041 C 
ATOM     13  O   UNL     1       8.395 -20.781  11.115  1.00  0.00    -0.550 OA
ATOM     14  O   UNL     1       6.817 -21.555  12.587  1.00  0.00    -0.550 OA
ENDBRANCH  11  12
ENDBRANCH  10  11
ENDBRANCH   9  10
ENDBRANCH   8   9
ENDBRANCH   7   8
ENDBRANCH   6   7
ENDBRANCH   5   6
ENDBRANCH   4   5
ENDBRANCH   3   4
ENDBRANCH   2   3
ENDBRANCH   1   2
BRANCH   1  15
ATOM     15  C   UNL     1      -1.515 -23.124  15.342  1.00  0.00     0.000 C 
BRANCH  15  16
ATOM     16  C   UNL     1      -2.391 -22.292  16.291  1.00  0.00     0.000 C 
BRANCH  16  17
ATOM     17  C   UNL     1      -3.833 -22.209  15.772  1.00  0.00     0.000 C 
BRANCH  17  18
ATOM     18  C   UNL     1      -4.866 -22.663  16.816  1.00  0.00    -0.000 C 
BRANCH  18  19
ATOM     19  C   UNL     1      -6.135 -21.795  16.809  1.00  0.00    -0.000 C 
BRANCH  19  20
ATOM     20  C   UNL     1      -7.071 -22.184  17.963  1.00  0.00    -0.000 C 
BRANCH  20  21
ATOM     21  C   UNL     1      -8.553 -22.160  17.558  1.00  0.00    -0.000 C 
BRANCH  21  22
ATOM     22  C   UNL     1      -9.445 -21.483  18.613  1.00  0.00    -0.000 C 
BRANCH  22  23
ATOM     23  C   UNL     1     -10.901 -21.320  18.125  1.00  0.00    -0.000 C 
BRANCH  23  24
ATOM     24  C   UNL     1     -11.051 -21.413  16.596  1.00  0.00    -0.000 C 
BRANCH  24  25
ATOM     25  C   UNL     1     -10.580 -20.145  15.871  1.00  0.00    -0.003 C 
ATOM     26  C   UNL     1     -10.737 -20.284  14.359  1.00  0.00     0.004 C 
ENDBRANCH  24  25
ENDBRANCH  23  24
ENDBRANCH  22  23
ENDBRANCH  21  22
ENDBRANCH  20  21
ENDBRANCH  19  20
ENDBRANCH  18  19
ENDBRANCH  17  18
ENDBRANCH  16  17
ENDBRANCH  15  16
ENDBRANCH   1  15
TORSDOF 22
ENDMDL
MODEL 5
REMARK VINA RESULT:    -1.276      5.977     14.819
REMARK INTER + INTRA:          -4.142
REMARK INTER:                  -2.928
REMARK INTRA:                  -1.214
REMARK UNBOUND:                -1.226
REMARK SMILES CCCCCCCCCCCCCCCCCCCCCCCC(=O)[O-]
REMARK SMILES IDX 13 1 14 2 15 3 16 4 17 5 18 6 19 7 20 8 21 9 22 10 23 11
REMARK SMILES IDX 24 12 25 13 26 14 12 15 11 16 10 17 9 18 8 19 7 20 6 21 5 22
REMARK SMILES IDX 4 23 3 24 2 25 1 26
REMARK H PARENT
REMARK Flexibility Score: inf
ROOT
ATOM      1  C   UNL     1      -3.930 -21.454  16.024  1.00  0.00     0.000 C 
ENDROOT
BRANCH   1   2
ATOM      2  C   UNL     1      -2.813 -22.396  15.535  1.00  0.00     0.000 C 
BRANCH   2   3
ATOM      3  C   UNL     1      -1.392 -21.806  15.605  1.00  0.00     0.000 C 
BRANCH   3   4
ATOM      4  C   UNL     1      -0.258 -22.835  15.800  1.00  0.00     0.000 C 
BRANCH   4   5
ATOM      5  C   UNL     1       1.160 -22.243  15.901  1.00  0.00     0.000 C 
BRANCH   5   6
ATOM      6  C   UNL     1       2.142 -22.857  14.888  1.00  0.00     0.000 C 
BRANCH   6   7
ATOM      7  C   UNL     1       3.532 -23.107  15.494  1.00  0.00     0.000 C 
BRANCH   7   8
ATOM      8  C   UNL     1       4.668 -22.950  14.468  1.00  0.00     0.000 C 
BRANCH   8   9
ATOM      9  C   UNL     1       6.055 -22.904  15.126  1.00  0.00     0.000 C 
BRANCH   9  10
ATOM     10  C   UNL     1       7.157 -22.456  14.150  1.00  0.00     0.006 C 
BRANCH  10  11
ATOM     11  C   UNL     1       6.584 -21.804  12.885  1.00  0.00     0.053 C 
BRANCH  11  12
ATOM     12  C   UNL     1       7.657 -21.461  11.897  1.00  0.00     0.041 C 
ATOM     13  O   UNL     1       7.959 -20.256  11.684  1.00  0.00    -0.550 OA
ATOM     14  O   UNL     1       8.297 -22.468  11.186  1.00  0.00    -0.550 OA
ENDBRANCH  11  12
ENDBRANCH  10  11
ENDBRANCH   9  10
ENDBRANCH   8   9
ENDBRANCH   7   8
ENDBRANCH   6   7
ENDBRANCH   5   6
ENDBRANCH   4   5
ENDBRANCH   3   4
ENDBRANCH   2   3
ENDBRANCH   1   2
BRANCH   1  15
ATOM     15  C   UNL     1      -5.321 -22.120  16.086  1.00  0.00     0.000 C 
BRANCH  15  16
ATOM     16  C   UNL     1      -5.443 -23.125  17.240  1.00  0.00     0.000 C 
BRANCH  16  17
ATOM     17  C   UNL     1      -6.021 -22.451  18.493  1.00  0.00     0.000 C 
BRANCH  17  18
ATOM     18  C   UNL     1      -7.541 -22.634  18.618  1.00  0.00    -0.000 C 
BRANCH  18  19
ATOM     19  C   UNL     1      -8.331 -21.617  17.779  1.00  0.00    -0.000 C 
BRANCH  19  20
ATOM     20  C   UNL     1      -9.823 -21.981  17.737  1.00  0.00    -0.000 C 
BRANCH  20  21
ATOM     21  C   UNL     1     -10.185 -23.111  18.713  1.00  0.00    -0.000 C 
BRANCH  21  22
ATOM     22  C   UNL     1     -11.120 -22.643  19.842  1.00  0.00    -0.000 C 
BRANCH  22  23
ATOM     23  C   UNL     1     -10.973 -21.133  20.128  1.00  0.00    -0.000 C 
BRANCH  23  24
ATOM     24  C   UNL     1     -10.039 -20.817  21.310  1.00  0.00    -0.000 C 
BRANCH  24  25
ATOM     25  C   UNL     1      -9.870 -22.002  22.270  1.00  0.00    -0.003 C 
ATOM     26  C   UNL     1      -8.801 -21.713  23.320  1.00  0.00     0.004 C 
ENDBRANCH  24  25
ENDBRANCH  23  24
ENDBRANCH  22  23
ENDBRANCH  21  22
ENDBRANCH  20  21
ENDBRANCH  19  20
ENDBRANCH  18  19
ENDBRANCH  17  18
ENDBRANCH  16  17
ENDBRANCH  15  16
ENDBRANCH   1  15
TORSDOF 22
ENDMDL
MODEL 6
REMARK VINA RESULT:    -1.145      1.719      4.187
REMARK INTER + INTRA:          -3.844
REMARK INTER:                  -3.372
REMARK INTRA:                  -0.472
REMARK UNBOUND:                -1.226
REMARK SMILES CCCCCCCCCCCCCCCCCCCCCCCC(=O)[O-]
REMARK SMILES IDX 13 1 14 2 15 3 16 4 17 5 18 6 19 7 20 8 21 9 22 10 23 11
REMARK SMILES IDX 24 12 25 13 26 14 12 15 11 16 10 17 9 18 8 19 7 20 6 21 5 22
REMARK SMILES IDX 4 23 3 24 2 25 1 26
REMARK H PARENT
REMARK Flexibility Score: inf
ROOT
ATOM      1  C   UNL     1      -5.231 -22.107  17.026  1.00  0.00     0.000 C 
ENDROOT
BRANCH   1   2
ATOM      2  C   UNL     1      -5.584 -23.002  18.230  1.00  0.00     0.000 C 
BRANCH   2   3
ATOM      3  C   UNL     1      -7.028 -22.856  18.743  1.00  0.00     0.000 C 
BRANCH   3   4
ATOM      4  C   UNL     1      -7.844 -21.711  18.105  1.00  0.00     0.000 C 
BRANCH   4   5
ATOM      5  C   UNL     1      -8.772 -22.127  16.949  1.00  0.00     0.000 C 
BRANCH   5   6
ATOM      6  C   UNL     1      -9.555 -20.946  16.350  1.00  0.00     0.000 C 
BRANCH   6   7
ATOM      7  C   UNL     1     -10.997 -20.870  16.875  1.00  0.00     0.000 C 
BRANCH   7   8
ATOM      8  C   UNL     1     -11.083 -21.007  18.406  1.00  0.00     0.000 C 
BRANCH   8   9
ATOM      9  C   UNL     1     -10.218 -19.971  19.140  1.00  0.00     0.000 C 
BRANCH   9  10
ATOM     10  C   UNL     1     -10.815 -19.559  20.497  1.00  0.00     0.006 C 
BRANCH  10  11
ATOM     11  C   UNL     1     -10.180 -18.275  21.047  1.00  0.00     0.053 C 
BRANCH  11  12
ATOM     12  C   UNL     1      -9.731 -18.436  22.467  1.00  0.00     0.041 C 
ATOM     13  O   UNL     1      -9.120 -17.499  23.046  1.00  0.00    -0.550 OA
ATOM     14  O   UNL     1      -9.956 -19.631  23.138  1.00  0.00    -0.550 OA
ENDBRANCH  11  12
ENDBRANCH  10  11
ENDBRANCH   9  10
ENDBRANCH   8   9
ENDBRANCH   7   8
ENDBRANCH   6   7
ENDBRANCH   5   6
ENDBRANCH   4   5
ENDBRANCH   3   4
ENDBRANCH   2   3
ENDBRANCH   1   2
BRANCH   1  15
ATOM     15  C   UNL     1      -4.536 -22.863  15.874  1.00  0.00     0.000 C 
BRANCH  15  16
ATOM     16  C   UNL     1      -3.040 -23.093  16.137  1.00  0.00     0.000 C 
BRANCH  16  17
ATOM     17  C   UNL     1      -2.287 -21.758  16.216  1.00  0.00     0.000 C 
BRANCH  17  18
ATOM     18  C   UNL     1      -0.787 -21.939  16.496  1.00  0.00    -0.000 C 
BRANCH  18  19
ATOM     19  C   UNL     1      -0.136 -22.987  15.580  1.00  0.00    -0.000 C 
BRANCH  19  20
ATOM     20  C   UNL     1       0.775 -22.317  14.540  1.00  0.00    -0.000 C 
BRANCH  20  21
ATOM     21  C   UNL     1       2.052 -23.124  14.262  1.00  0.00    -0.000 C 
BRANCH  21  22
ATOM     22  C   UNL     1       3.265 -22.228  13.957  1.00  0.00    -0.000 C 
BRANCH  22  23
ATOM     23  C   UNL     1       4.598 -23.003  14.049  1.00  0.00    -0.000 C 
BRANCH  23  24
ATOM     24  C   UNL     1       5.489 -22.844  12.805  1.00  0.00    -0.000 C 
BRANCH  24  25
ATOM     25  C   UNL     1       6.765 -22.038  13.083  1.00  0.00    -0.003 C 
ATOM     26  C   UNL     1       7.582 -22.668  14.207  1.00  0.00     0.004 C 
ENDBRANCH  24  25
ENDBRANCH  23  24
ENDBRANCH  22  23
ENDBRANCH  21  22
ENDBRANCH  20  21
ENDBRANCH  19  20
ENDBRANCH  18  19
ENDBRANCH  17  18
ENDBRANCH  16  17
ENDBRANCH  15  16
ENDBRANCH   1  15
TORSDOF 22
ENDMDL
MODEL 7
REMARK VINA RESULT:    -1.078      1.893      2.504
REMARK INTER + INTRA:          -3.690
REMARK INTER:                  -2.948
REMARK INTRA:                  -0.742
REMARK UNBOUND:                -1.226
REMARK SMILES CCCCCCCCCCCCCCCCCCCCCCCC(=O)[O-]
REMARK SMILES IDX 13 1 14 2 15 3 16 4 17 5 18 6 19 7 20 8 21 9 22 10 23 11
REMARK SMILES IDX 24 12 25 13 26 14 12 15 11 16 10 17 9 18 8 19 7 20 6 21 5 22
REMARK SMILES IDX 4 23 3 24 2 25 1 26
REMARK H PARENT
REMARK Flexibility Score: inf
ROOT
ATOM      1  C   UNL     1      -0.940 -22.897  16.283  1.00  0.00     0.000 C 
ENDROOT
BRANCH   1   2
ATOM      2  C   UNL     1      -1.855 -21.684  16.027  1.00  0.00     0.000 C 
BRANCH   2   3
ATOM      3  C   UNL     1      -3.180 -22.012  15.315  1.00  0.00     0.000 C 
BRANCH   3   4
ATOM      4  C   UNL     1      -4.093 -23.018  16.047  1.00  0.00     0.000 C 
BRANCH   4   5
ATOM      5  C   UNL     1      -4.748 -22.496  17.339  1.00  0.00     0.000 C 
BRANCH   5   6
ATOM      6  C   UNL     1      -6.179 -23.022  17.544  1.00  0.00     0.000 C 
BRANCH   6   7
ATOM      7  C   UNL     1      -7.222 -22.206  16.765  1.00  0.00     0.000 C 
BRANCH   7   8
ATOM      8  C   UNL     1      -8.449 -21.835  17.617  1.00  0.00     0.000 C 
BRANCH   8   9
ATOM      9  C   UNL     1      -9.551 -22.904  17.563  1.00  0.00     0.000 C 
BRANCH   9  10
ATOM     10  C   UNL     1     -10.906 -22.381  18.067  1.00  0.00     0.006 C 
BRANCH  10  11
ATOM     11  C   UNL     1     -10.850 -20.897  18.453  1.00  0.00     0.053 C 
BRANCH  11  12
ATOM     12  C   UNL     1     -10.361 -20.702  19.856  1.00  0.00     0.041 C 
ATOM     13  O   UNL     1     -10.114 -19.543  20.283  1.00  0.00    -0.550 OA
ATOM     14  O   UNL     1     -10.146 -21.800  20.679  1.00  0.00    -0.550 OA
ENDBRANCH  11  12
ENDBRANCH  10  11
ENDBRANCH   9  10
ENDBRANCH   8   9
ENDBRANCH   7   8
ENDBRANCH   6   7
ENDBRANCH   5   6
ENDBRANCH   4   5
ENDBRANCH   3   4
ENDBRANCH   2   3
ENDBRANCH   1   2
BRANCH   1  15
ATOM     15  C   UNL     1       0.343 -22.899  15.425  1.00  0.00     0.000 C 
BRANCH  15  16
ATOM     16  C   UNL     1       1.452 -22.018  16.019  1.00  0.00     0.000 C 
BRANCH  16  17
ATOM     17  C   UNL     1       2.801 -22.310  15.348  1.00  0.00     0.000 C 
BRANCH  17  18
ATOM     18  C   UNL     1       2.693 -22.409  13.818  1.00  0.00    -0.000 C 
BRANCH  18  19
ATOM     19  C   UNL     1       3.898 -23.123  13.184  1.00  0.00    -0.000 C 
BRANCH  19  20
ATOM     20  C   UNL     1       5.207 -22.702  13.870  1.00  0.00    -0.000 C 
BRANCH  20  21
ATOM     21  C   UNL     1       6.453 -23.120  13.074  1.00  0.00    -0.000 C 
BRANCH  21  22
ATOM     22  C   UNL     1       6.555 -22.408  11.714  1.00  0.00    -0.000 C 
BRANCH  22  23
ATOM     23  C   UNL     1       7.999 -22.402  11.168  1.00  0.00    -0.000 C 
BRANCH  23  24
ATOM     24  C   UNL     1       8.619 -20.996  11.084  1.00  0.00    -0.000 C 
BRANCH  24  25
ATOM     25  C   UNL     1       8.848 -20.360  12.462  1.00  0.00    -0.003 C 
ATOM     26  C   UNL     1       8.664 -18.846  12.408  1.00  0.00     0.004 C 
ENDBRANCH  24  25
ENDBRANCH  23  24
ENDBRANCH  22  23
ENDBRANCH  21  22
ENDBRANCH  20  21
ENDBRANCH  19  20
ENDBRANCH  18  19
ENDBRANCH  17  18
ENDBRANCH  16  17
ENDBRANCH  15  16
ENDBRANCH   1  15
TORSDOF 22
ENDMDL
MODEL 8
REMARK VINA RESULT:    -1.044      5.148     14.195
REMARK INTER + INTRA:          -3.613
REMARK INTER:                  -2.794
REMARK INTRA:                  -0.819
REMARK UNBOUND:                -1.226
REMARK SMILES CCCCCCCCCCCCCCCCCCCCCCCC(=O)[O-]
REMARK SMILES IDX 13 1 14 2 15 3 16 4 17 5 18 6 19 7 20 8 21 9 22 10 23 11
REMARK SMILES IDX 24 12 25 13 26 14 12 15 11 16 10 17 9 18 8 19 7 20 6 21 5 22
REMARK SMILES IDX 4 23 3 24 2 25 1 26
REMARK H PARENT
REMARK Flexibility Score: inf
ROOT
ATOM      1  C   UNL     1      -4.483 -21.093  15.992  1.00  0.00     0.000 C 
ENDROOT
BRANCH   1   2
ATOM      2  C   UNL     1      -3.317 -21.889  15.374  1.00  0.00     0.000 C 
BRANCH   2   3
ATOM      3  C   UNL     1      -2.086 -22.047  16.285  1.00  0.00     0.000 C 
BRANCH   3   4
ATOM      4  C   UNL     1      -1.008 -23.028  15.776  1.00  0.00     0.000 C 
BRANCH   4   5
ATOM      5  C   UNL     1       0.403 -22.434  15.618  1.00  0.00     0.000 C 
BRANCH   5   6
ATOM      6  C   UNL     1       1.106 -22.887  14.326  1.00  0.00     0.000 C 
BRANCH   6   7
ATOM      7  C   UNL     1       2.611 -23.125  14.528  1.00  0.00     0.000 C 
BRANCH   7   8
ATOM      8  C   UNL     1       3.412 -23.020  13.218  1.00  0.00     0.000 C 
BRANCH   8   9
ATOM      9  C   UNL     1       4.928 -22.944  13.459  1.00  0.00     0.000 C 
BRANCH   9  10
ATOM     10  C   UNL     1       5.295 -23.043  14.950  1.00  0.00     0.006 C 
BRANCH  10  11
ATOM     11  C   UNL     1       6.342 -22.002  15.362  1.00  0.00     0.053 C 
BRANCH  11  12
ATOM     12  C   UNL     1       6.568 -21.991  16.843  1.00  0.00     0.041 C 
ATOM     13  O   UNL     1       5.659 -21.590  17.618  1.00  0.00    -0.550 OA
ATOM     14  O   UNL     1       7.792 -22.389  17.365  1.00  0.00    -0.550 OA
ENDBRANCH  11  12
ENDBRANCH  10  11
ENDBRANCH   9  10
ENDBRANCH   8   9
ENDBRANCH   7   8
ENDBRANCH   6   7
ENDBRANCH   5   6
ENDBRANCH   4   5
ENDBRANCH   3   4
ENDBRANCH   2   3
ENDBRANCH   1   2
BRANCH   1  15
ATOM     15  C   UNL     1      -5.877 -21.626  15.597  1.00  0.00     0.000 C 
BRANCH  15  16
ATOM     16  C   UNL     1      -6.206 -22.969  16.264  1.00  0.00     0.000 C 
BRANCH  16  17
ATOM     17  C   UNL     1      -6.594 -22.767  17.736  1.00  0.00     0.000 C 
BRANCH  17  18
ATOM     18  C   UNL     1      -8.091 -22.470  17.920  1.00  0.00    -0.000 C 
BRANCH  18  19
ATOM     19  C   UNL     1      -8.835 -22.332  16.583  1.00  0.00    -0.000 C 
BRANCH  19  20
ATOM     20  C   UNL     1     -10.061 -21.417  16.729  1.00  0.00    -0.000 C 
BRANCH  20  21
ATOM     21  C   UNL     1     -10.471 -21.206  18.195  1.00  0.00    -0.000 C 
BRANCH  21  22
ATOM     22  C   UNL     1     -11.060 -19.808  18.451  1.00  0.00    -0.000 C 
BRANCH  22  23
ATOM     23  C   UNL     1     -11.102 -19.462  19.955  1.00  0.00    -0.000 C 
BRANCH  23  24
ATOM     24  C   UNL     1      -9.791 -18.855  20.484  1.00  0.00    -0.000 C 
BRANCH  24  25
ATOM     25  C   UNL     1     -10.021 -17.719  21.489  1.00  0.00    -0.003 C 
ATOM     26  C   UNL     1      -9.331 -18.010  22.819  1.00  0.00     0.004 C 
ENDBRANCH  24  25
ENDBRANCH  23  24
ENDBRANCH  22  23
ENDBRANCH  21  22
ENDBRANCH  20  21
ENDBRANCH  19  20
ENDBRANCH  18  19
ENDBRANCH  17  18
ENDBRANCH  16  17
ENDBRANCH  15  16
ENDBRANCH   1  15
TORSDOF 22
ENDMDL
MODEL 9
REMARK VINA RESULT:    -0.455      1.704      2.244
REMARK INTER + INTRA:          -2.265
REMARK INTER:                  -1.194
REMARK INTRA:                  -1.072
REMARK UNBOUND:                -1.226
REMARK SMILES CCCCCCCCCCCCCCCCCCCCCCCC(=O)[O-]
REMARK SMILES IDX 13 1 14 2 15 3 16 4 17 5 18 6 19 7 20 8 21 9 22 10 23 11
REMARK SMILES IDX 24 12 25 13 26 14 12 15 11 16 10 17 9 18 8 19 7 20 6 21 5 22
REMARK SMILES IDX 4 23 3 24 2 25 1 26
REMARK H PARENT
REMARK Flexibility Score: inf
ROOT
ATOM      1  C   UNL     1       0.561 -22.237  16.015  1.00  0.00     0.000 C 
ENDROOT
BRANCH   1   2
ATOM      2  C   UNL     1      -0.587 -22.914  15.241  1.00  0.00     0.000 C 
BRANCH   2   3
ATOM      3  C   UNL     1      -1.878 -23.125  16.052  1.00  0.00     0.000 C 
BRANCH   3   4
ATOM      4  C   UNL     1      -2.722 -21.855  16.293  1.00  0.00     0.000 C 
BRANCH   4   5
ATOM      5  C   UNL     1      -4.037 -21.775  15.495  1.00  0.00     0.000 C 
BRANCH   5   6
ATOM      6  C   UNL     1      -5.194 -22.540  16.161  1.00  0.00     0.000 C 
BRANCH   6   7
ATOM      7  C   UNL     1      -6.462 -21.683  16.299  1.00  0.00     0.000 C 
BRANCH   7   8
ATOM      8  C   UNL     1      -7.731 -22.526  16.517  1.00  0.00     0.000 C 
BRANCH   8   9
ATOM      9  C   UNL     1      -7.806 -23.125  17.929  1.00  0.00     0.000 C 
BRANCH   9  10
ATOM     10  C   UNL     1      -8.292 -22.108  18.977  1.00  0.00     0.006 C 
BRANCH  10  11
ATOM     11  C   UNL     1      -8.751 -22.784  20.275  1.00  0.00     0.053 C 
BRANCH  11  12
ATOM     12  C   UNL     1     -10.209 -22.558  20.539  1.00  0.00     0.041 C 
ATOM     13  O   UNL     1     -10.964 -22.158  19.613  1.00  0.00    -0.550 OA
ATOM     14  O   UNL     1     -10.725 -22.755  21.813  1.00  0.00    -0.550 OA
ENDBRANCH  11  12
ENDBRANCH  10  11
ENDBRANCH   9  10
ENDBRANCH   8   9
ENDBRANCH   7   8
ENDBRANCH   6   7
ENDBRANCH   5   6
ENDBRANCH   4   5
ENDBRANCH   3   4
ENDBRANCH   2   3
ENDBRANCH   1   2
BRANCH   1  15
ATOM     15  C   UNL     1       1.947 -22.855  15.737  1.00  0.00     0.000 C 
BRANCH  15  16
ATOM     16  C   UNL     1       2.457 -22.546  14.321  1.00  0.00     0.000 C 
BRANCH  16  17
ATOM     17  C   UNL     1       3.868 -23.115  14.113  1.00  0.00     0.000 C 
BRANCH  17  18
ATOM     18  C   UNL     1       4.712 -23.094  15.397  1.00  0.00    -0.000 C 
BRANCH  18  19
ATOM     19  C   UNL     1       5.979 -22.236  15.259  1.00  0.00    -0.000 C 
BRANCH  19  20
ATOM     20  C   UNL     1       6.893 -22.405  16.482  1.00  0.00    -0.000 C 
BRANCH  20  21
ATOM     21  C   UNL     1       8.375 -22.546  16.101  1.00  0.00    -0.000 C 
BRANCH  21  22
ATOM     22  C   UNL     1       8.612 -22.415  14.586  1.00  0.00    -0.000 C 
BRANCH  22  23
ATOM     23  C   UNL     1       9.019 -20.981  14.183  1.00  0.00    -0.000 C 
BRANCH  23  24
ATOM     24  C   UNL     1       8.556 -20.584  12.770  1.00  0.00    -0.000 C 
BRANCH  24  25
ATOM     25  C   UNL     1       7.421 -21.471  12.242  1.00  0.00    -0.003 C 
ATOM     26  C   UNL     1       7.501 -21.625  10.725  1.00  0.00     0.004 C 
ENDBRANCH  24  25
ENDBRANCH  23  24
ENDBRANCH  22  23
ENDBRANCH  21  22
ENDBRANCH  20  21
ENDBRANCH  19  20
ENDBRANCH  18  19
ENDBRANCH  17  18
ENDBRANCH  16  17
ENDBRANCH  15  16
ENDBRANCH   1  15
TORSDOF 22
ENDMDL
