MODEL 1
REMARK VINA RESULT:    -5.727      0.000      0.000
REMARK INTER + INTRA:          -7.206
REMARK INTER:                  -7.066
REMARK INTRA:                  -0.140
REMARK UNBOUND:                -0.140
REMARK SMILES Oc1cc(O)c2cc(O)c(-c3cc(O)c(O)c(O)c3)[o+]c2c1
REMARK SMILES IDX 10 1 20 2 21 3 22 4 2 5 3 6 4 7 6 8 7 9 8 10 11 11 12 12
REMARK SMILES IDX 13 13 19 14 15 15 17 16 14 17 16 19 18 21 9 23 1 25 5 27
REMARK H PARENT 14 18 16 20 18 22 9 24 1 26 5 28
REMARK Flexibility Score: inf
ROOT
ATOM      1  C   UNL     1      27.205 -13.156  32.204  1.00  0.00     0.402 A 
ATOM      2  O   UNL     1      27.165 -12.147  33.072  1.00  0.00    -0.202 OA
ATOM      3  C   UNL     1      26.346 -12.121  34.120  1.00  0.00     0.368 A 
ATOM      4  C   UNL     1      26.362 -11.022  34.983  1.00  0.00     0.162 A 
ATOM      5  C   UNL     1      25.504 -10.979  36.087  1.00  0.00     0.128 A 
ATOM      6  C   UNL     1      24.626 -12.043  36.330  1.00  0.00     0.093 A 
ATOM      7  C   UNL     1      24.599 -13.154  35.473  1.00  0.00     0.136 A 
ATOM      8  C   UNL     1      25.463 -13.194  34.362  1.00  0.00     0.125 A 
ATOM      9  C   UNL     1      25.486 -14.280  33.479  1.00  0.00     0.078 A 
ATOM     10  C   UNL     1      26.368 -14.275  32.394  1.00  0.00     0.223 A 
ENDROOT
BRANCH   1  11
ATOM     11  C   UNL     1      28.153 -13.067  31.070  1.00  0.00     0.091 A 
ATOM     12  C   UNL     1      29.535 -12.927  31.280  1.00  0.00     0.068 A 
ATOM     13  C   UNL     1      30.419 -12.867  30.193  1.00  0.00     0.162 A 
ATOM     14  C   UNL     1      27.670 -13.181  29.757  1.00  0.00     0.068 A 
ATOM     15  C   UNL     1      29.923 -12.959  28.882  1.00  0.00     0.200 A 
ATOM     16  C   UNL     1      28.543 -13.120  28.667  1.00  0.00     0.162 A 
BRANCH  13  17
ATOM     17  O   UNL     1      31.787 -12.721  30.413  1.00  0.00    -0.504 OA
ATOM     18  H   UNL     1      32.472 -13.065  29.750  1.00  0.00     0.293 HD
ENDBRANCH  13  17
BRANCH  15  19
ATOM     19  O   UNL     1      30.788 -12.895  27.788  1.00  0.00    -0.502 OA
ATOM     20  H   UNL     1      31.708 -12.477  27.850  1.00  0.00     0.293 HD
ENDBRANCH  15  19
BRANCH  16  21
ATOM     21  O   UNL     1      28.022 -13.222  27.378  1.00  0.00    -0.504 OA
ATOM     22  H   UNL     1      27.843 -14.116  26.937  1.00  0.00     0.293 HD
ENDBRANCH  16  21
ENDBRANCH   1  11
BRANCH  10  23
ATOM     23  O   UNL     1      26.431 -15.375  31.539  1.00  0.00    -0.500 OA
ATOM     24  H   UNL     1      25.843 -16.188  31.675  1.00  0.00     0.294 HD
ENDBRANCH  10  23
BRANCH   5  25
ATOM     25  O   UNL     1      25.534  -9.875  36.937  1.00  0.00    -0.507 OA
ATOM     26  H   UNL     1      26.335  -9.255  36.971  1.00  0.00     0.293 HD
ENDBRANCH   5  25
BRANCH   7  27
ATOM     27  O   UNL     1      23.720 -14.208  35.726  1.00  0.00    -0.507 OA
ATOM     28  H   UNL     1      24.005 -15.020  36.261  1.00  0.00     0.293 HD
ENDBRANCH   7  27
TORSDOF 7
ENDMDL
MODEL 2
REMARK VINA RESULT:    -5.695      0.077      1.795
REMARK INTER + INTRA:          -7.167
REMARK INTER:                  -6.968
REMARK INTRA:                  -0.199
REMARK UNBOUND:                -0.140
REMARK SMILES Oc1cc(O)c2cc(O)c(-c3cc(O)c(O)c(O)c3)[o+]c2c1
REMARK SMILES IDX 10 1 20 2 21 3 22 4 2 5 3 6 4 7 6 8 7 9 8 10 11 11 12 12
REMARK SMILES IDX 13 13 19 14 15 15 17 16 14 17 16 19 18 21 9 23 1 25 5 27
REMARK H PARENT 14 18 16 20 18 22 9 24 1 26 5 28
REMARK Flexibility Score: inf
ROOT
ATOM      1  C   UNL     1      27.194 -13.236  32.192  1.00  0.00     0.402 A 
ATOM      2  O   UNL     1      27.171 -12.217  33.050  1.00  0.00    -0.202 OA
ATOM      3  C   UNL     1      26.355 -12.168  34.099  1.00  0.00     0.368 A 
ATOM      4  C   UNL     1      26.389 -11.060  34.950  1.00  0.00     0.162 A 
ATOM      5  C   UNL     1      25.535 -10.993  36.055  1.00  0.00     0.128 A 
ATOM      6  C   UNL     1      24.642 -12.042  36.312  1.00  0.00     0.093 A 
ATOM      7  C   UNL     1      24.597 -13.161  35.467  1.00  0.00     0.136 A 
ATOM      8  C   UNL     1      25.457 -13.226  34.355  1.00  0.00     0.125 A 
ATOM      9  C   UNL     1      25.462 -14.321  33.483  1.00  0.00     0.078 A 
ATOM     10  C   UNL     1      26.342 -14.341  32.397  1.00  0.00     0.223 A 
ENDROOT
BRANCH   1  11
ATOM     11  C   UNL     1      28.140 -13.173  31.055  1.00  0.00     0.091 A 
ATOM     12  C   UNL     1      27.693 -13.234  29.725  1.00  0.00     0.068 A 
ATOM     13  C   UNL     1      28.602 -13.150  28.662  1.00  0.00     0.162 A 
ATOM     14  C   UNL     1      29.509 -12.991  31.307  1.00  0.00     0.068 A 
ATOM     15  C   UNL     1      29.973 -12.991  28.924  1.00  0.00     0.200 A 
ATOM     16  C   UNL     1      30.424 -12.907  30.253  1.00  0.00     0.162 A 
BRANCH  13  17
ATOM     17  O   UNL     1      28.146 -13.219  27.346  1.00  0.00    -0.504 OA
ATOM     18  H   UNL     1      27.982 -14.107  26.887  1.00  0.00     0.293 HD
ENDBRANCH  13  17
BRANCH  15  19
ATOM     19  O   UNL     1      30.893 -12.910  27.877  1.00  0.00    -0.502 OA
ATOM     20  H   UNL     1      30.823 -12.208  27.149  1.00  0.00     0.293 HD
ENDBRANCH  15  19
BRANCH  16  21
ATOM     21  O   UNL     1      31.777 -12.742  30.544  1.00  0.00    -0.504 OA
ATOM     22  H   UNL     1      32.120 -11.959  31.088  1.00  0.00     0.293 HD
ENDBRANCH  16  21
ENDBRANCH   1  11
BRANCH  10  23
ATOM     23  O   UNL     1      26.387 -15.450  31.553  1.00  0.00    -0.500 OA
ATOM     24  H   UNL     1      27.031 -15.497  30.772  1.00  0.00     0.294 HD
ENDBRANCH  10  23
BRANCH   5  25
ATOM     25  O   UNL     1      25.583  -9.880  36.893  1.00  0.00    -0.507 OA
ATOM     26  H   UNL     1      25.117  -9.015  36.649  1.00  0.00     0.293 HD
ENDBRANCH   5  25
BRANCH   7  27
ATOM     27  O   UNL     1      23.704 -14.200  35.733  1.00  0.00    -0.507 OA
ATOM     28  H   UNL     1      23.375 -14.390  36.672  1.00  0.00     0.293 HD
ENDBRANCH   7  27
TORSDOF 7
ENDMDL
MODEL 3
REMARK VINA RESULT:    -3.335      1.088      3.112
REMARK INTER + INTRA:          -4.255
REMARK INTER:                  -3.963
REMARK INTRA:                  -0.292
REMARK UNBOUND:                -0.140
REMARK SMILES Oc1cc(O)c2cc(O)c(-c3cc(O)c(O)c(O)c3)[o+]c2c1
REMARK SMILES IDX 10 1 20 2 21 3 22 4 2 5 3 6 4 7 6 8 7 9 8 10 11 11 12 12
REMARK SMILES IDX 13 13 19 14 15 15 17 16 14 17 16 19 18 21 9 23 1 25 5 27
REMARK H PARENT 14 18 16 20 18 22 9 24 1 26 5 28
REMARK Flexibility Score: inf
ROOT
ATOM      1  C   UNL     1      27.525 -12.125  31.980  1.00  0.00     0.402 A 
ATOM      2  O   UNL     1      26.702 -12.984  32.580  1.00  0.00    -0.202 OA
ATOM      3  C   UNL     1      26.031 -12.694  33.691  1.00  0.00     0.368 A 
ATOM      4  C   UNL     1      25.190 -13.653  34.261  1.00  0.00     0.162 A 
ATOM      5  C   UNL     1      24.481 -13.363  35.431  1.00  0.00     0.128 A 
ATOM      6  C   UNL     1      24.614 -12.106  36.034  1.00  0.00     0.093 A 
ATOM      7  C   UNL     1      25.454 -11.132  35.473  1.00  0.00     0.136 A 
ATOM      8  C   UNL     1      26.167 -11.426  34.295  1.00  0.00     0.125 A 
ATOM      9  C   UNL     1      27.012 -10.491  33.686  1.00  0.00     0.078 A 
ATOM     10  C   UNL     1      27.693 -10.830  32.513  1.00  0.00     0.223 A 
ENDROOT
BRANCH   1  11
ATOM     11  C   UNL     1      28.224 -12.566  30.752  1.00  0.00     0.091 A 
ATOM     12  C   UNL     1      27.541 -12.723  29.535  1.00  0.00     0.068 A 
ATOM     13  C   UNL     1      28.225 -13.120  28.378  1.00  0.00     0.162 A 
ATOM     14  C   UNL     1      29.611 -12.779  30.788  1.00  0.00     0.068 A 
ATOM     15  C   UNL     1      29.609 -13.354  28.429  1.00  0.00     0.200 A 
ATOM     16  C   UNL     1      30.302 -13.177  29.639  1.00  0.00     0.162 A 
BRANCH  13  17
ATOM     17  O   UNL     1      27.535 -13.279  27.178  1.00  0.00    -0.504 OA
ATOM     18  H   UNL     1      28.015 -13.292  26.286  1.00  0.00     0.293 HD
ENDBRANCH  13  17
BRANCH  15  19
ATOM     19  O   UNL     1      30.307 -13.755  27.288  1.00  0.00    -0.502 OA
ATOM     20  H   UNL     1      29.834 -14.015  26.430  1.00  0.00     0.293 HD
ENDBRANCH  15  19
BRANCH  16  21
ATOM     21  O   UNL     1      31.678 -13.393  29.720  1.00  0.00    -0.504 OA
ATOM     22  H   UNL     1      32.326 -12.657  29.970  1.00  0.00     0.293 HD
ENDBRANCH  16  21
ENDBRANCH   1  11
BRANCH  10  23
ATOM     23  O   UNL     1      28.498  -9.888  31.874  1.00  0.00    -0.500 OA
ATOM     24  H   UNL     1      28.119  -9.243  31.189  1.00  0.00     0.294 HD
ENDBRANCH  10  23
BRANCH   5  25
ATOM     25  O   UNL     1      23.647 -14.332  35.986  1.00  0.00    -0.507 OA
ATOM     26  H   UNL     1      23.198 -14.193  36.883  1.00  0.00     0.293 HD
ENDBRANCH   5  25
BRANCH   7  27
ATOM     27  O   UNL     1      25.576  -9.882  36.082  1.00  0.00    -0.507 OA
ATOM     28  H   UNL     1      25.282  -9.033  35.615  1.00  0.00     0.293 HD
ENDBRANCH   7  27
TORSDOF 7
ENDMDL
MODEL 4
REMARK VINA RESULT:    -3.285      2.121      7.464
REMARK INTER + INTRA:          -4.193
REMARK INTER:                  -4.396
REMARK INTRA:                   0.203
REMARK UNBOUND:                -0.140
REMARK SMILES Oc1cc(O)c2cc(O)c(-c3cc(O)c(O)c(O)c3)[o+]c2c1
REMARK SMILES IDX 10 1 20 2 21 3 22 4 2 5 3 6 4 7 6 8 7 9 8 10 11 11 12 12
REMARK SMILES IDX 13 13 19 14 15 15 17 16 14 17 16 19 18 21 9 23 1 25 5 27
REMARK H PARENT 14 18 16 20 18 22 9 24 1 26 5 28
REMARK Flexibility Score: inf
ROOT
ATOM      1  C   UNL     1      27.548 -11.793  30.856  1.00  0.00     0.402 A 
ATOM      2  O   UNL     1      27.138 -12.673  29.944  1.00  0.00    -0.202 OA
ATOM      3  C   UNL     1      27.522 -12.635  28.671  1.00  0.00     0.368 A 
ATOM      4  C   UNL     1      27.043 -13.594  27.775  1.00  0.00     0.162 A 
ATOM      5  C   UNL     1      27.436 -13.564  26.433  1.00  0.00     0.128 A 
ATOM      6  C   UNL     1      28.314 -12.568  25.985  1.00  0.00     0.093 A 
ATOM      7  C   UNL     1      28.805 -11.599  26.874  1.00  0.00     0.136 A 
ATOM      8  C   UNL     1      28.407 -11.631  28.224  1.00  0.00     0.125 A 
ATOM      9  C   UNL     1      28.871 -10.696  29.156  1.00  0.00     0.078 A 
ATOM     10  C   UNL     1      28.452 -10.775  30.487  1.00  0.00     0.223 A 
ENDROOT
BRANCH   1  11
ATOM     11  C   UNL     1      27.043 -11.933  32.241  1.00  0.00     0.091 A 
ATOM     12  C   UNL     1      26.958 -10.829  33.105  1.00  0.00     0.068 A 
ATOM     13  C   UNL     1      26.456 -10.977  34.405  1.00  0.00     0.162 A 
ATOM     14  C   UNL     1      26.586 -13.184  32.685  1.00  0.00     0.068 A 
ATOM     15  C   UNL     1      26.023 -12.238  34.848  1.00  0.00     0.200 A 
ATOM     16  C   UNL     1      26.086 -13.342  33.981  1.00  0.00     0.162 A 
BRANCH  13  17
ATOM     17  O   UNL     1      26.382  -9.875  35.255  1.00  0.00    -0.504 OA
ATOM     18  H   UNL     1      26.901  -9.024  35.069  1.00  0.00     0.293 HD
ENDBRANCH  13  17
BRANCH  15  19
ATOM     19  O   UNL     1      25.525 -12.405  36.142  1.00  0.00    -0.502 OA
ATOM     20  H   UNL     1      24.719 -12.987  36.339  1.00  0.00     0.293 HD
ENDBRANCH  15  19
BRANCH  16  21
ATOM     21  O   UNL     1      25.656 -14.604  34.389  1.00  0.00    -0.504 OA
ATOM     22  H   UNL     1      26.235 -15.429  34.290  1.00  0.00     0.293 HD
ENDBRANCH  16  21
ENDBRANCH   1  11
BRANCH  10  23
ATOM     23  O   UNL     1      28.948  -9.878  31.432  1.00  0.00    -0.500 OA
ATOM     24  H   UNL     1      28.575  -9.838  32.374  1.00  0.00     0.294 HD
ENDBRANCH  10  23
BRANCH   5  25
ATOM     25  O   UNL     1      26.948 -14.528  25.554  1.00  0.00    -0.507 OA
ATOM     26  H   UNL     1      27.031 -14.419  24.550  1.00  0.00     0.293 HD
ENDBRANCH   5  25
BRANCH   7  27
ATOM     27  O   UNL     1      29.680 -10.614  26.416  1.00  0.00    -0.507 OA
ATOM     28  H   UNL     1      30.685 -10.718  26.493  1.00  0.00     0.293 HD
ENDBRANCH   7  27
TORSDOF 7
ENDMDL
MODEL 5
REMARK VINA RESULT:    -3.277      1.514      6.966
REMARK INTER + INTRA:          -4.183
REMARK INTER:                  -4.079
REMARK INTRA:                  -0.104
REMARK UNBOUND:                -0.140
REMARK SMILES Oc1cc(O)c2cc(O)c(-c3cc(O)c(O)c(O)c3)[o+]c2c1
REMARK SMILES IDX 10 1 20 2 21 3 22 4 2 5 3 6 4 7 6 8 7 9 8 10 11 11 12 12
REMARK SMILES IDX 13 13 19 14 15 15 17 16 14 17 16 19 18 21 9 23 1 25 5 27
REMARK H PARENT 14 18 16 20 18 22 9 24 1 26 5 28
REMARK Flexibility Score: inf
ROOT
ATOM      1  C   UNL     1      27.304 -12.660  32.370  1.00  0.00     0.402 A 
ATOM      2  O   UNL     1      27.324 -11.722  31.424  1.00  0.00    -0.202 OA
ATOM      3  C   UNL     1      28.024 -11.839  30.299  1.00  0.00     0.368 A 
ATOM      4  C   UNL     1      27.996 -10.807  29.357  1.00  0.00     0.162 A 
ATOM      5  C   UNL     1      28.729 -10.914  28.172  1.00  0.00     0.128 A 
ATOM      6  C   UNL     1      29.495 -12.061  27.926  1.00  0.00     0.093 A 
ATOM      7  C   UNL     1      29.533 -13.106  28.862  1.00  0.00     0.136 A 
ATOM      8  C   UNL     1      28.794 -12.996  30.055  1.00  0.00     0.125 A 
ATOM      9  C   UNL     1      28.786 -14.009  31.020  1.00  0.00     0.078 A 
ATOM     10  C   UNL     1      28.030 -13.855  32.185  1.00  0.00     0.223 A 
ENDROOT
BRANCH   1  11
ATOM     11  C   UNL     1      26.494 -12.412  33.584  1.00  0.00     0.091 A 
ATOM     12  C   UNL     1      26.671 -11.254  34.359  1.00  0.00     0.068 A 
ATOM     13  C   UNL     1      25.879 -11.026  35.493  1.00  0.00     0.162 A 
ATOM     14  C   UNL     1      25.488 -13.324  33.941  1.00  0.00     0.068 A 
ATOM     15  C   UNL     1      24.891 -11.956  35.855  1.00  0.00     0.200 A 
ATOM     16  C   UNL     1      24.695 -13.106  35.071  1.00  0.00     0.162 A 
BRANCH  13  17
ATOM     17  O   UNL     1      26.068  -9.876  36.258  1.00  0.00    -0.504 OA
ATOM     18  H   UNL     1      26.897  -9.746  36.827  1.00  0.00     0.293 HD
ENDBRANCH  13  17
BRANCH  15  19
ATOM     19  O   UNL     1      24.096 -11.748  36.984  1.00  0.00    -0.502 OA
ATOM     20  H   UNL     1      23.601 -10.878  37.143  1.00  0.00     0.293 HD
ENDBRANCH  15  19
BRANCH  16  21
ATOM     21  O   UNL     1      23.717 -14.044  35.400  1.00  0.00    -0.504 OA
ATOM     22  H   UNL     1      22.727 -13.843  35.319  1.00  0.00     0.293 HD
ENDBRANCH  16  21
ENDBRANCH   1  11
BRANCH  10  23
ATOM     23  O   UNL     1      27.978 -14.881  33.128  1.00  0.00    -0.500 OA
ATOM     24  H   UNL     1      27.941 -15.855  32.851  1.00  0.00     0.294 HD
ENDBRANCH  10  23
BRANCH   5  25
ATOM     25  O   UNL     1      28.690  -9.875  27.244  1.00  0.00    -0.507 OA
ATOM     26  H   UNL     1      29.506  -9.619  26.701  1.00  0.00     0.293 HD
ENDBRANCH   5  25
BRANCH   7  27
ATOM     27  O   UNL     1      30.298 -14.245  28.605  1.00  0.00    -0.507 OA
ATOM     28  H   UNL     1      29.868 -15.145  28.428  1.00  0.00     0.293 HD
ENDBRANCH   7  27
TORSDOF 7
ENDMDL
MODEL 6
REMARK VINA RESULT:    -3.196      1.120      2.571
REMARK INTER + INTRA:          -4.084
REMARK INTER:                  -3.755
REMARK INTRA:                  -0.329
REMARK UNBOUND:                -0.140
REMARK SMILES Oc1cc(O)c2cc(O)c(-c3cc(O)c(O)c(O)c3)[o+]c2c1
REMARK SMILES IDX 10 1 20 2 21 3 22 4 2 5 3 6 4 7 6 8 7 9 8 10 11 11 12 12
REMARK SMILES IDX 13 13 19 14 15 15 17 16 14 17 16 19 18 21 9 23 1 25 5 27
REMARK H PARENT 14 18 16 20 18 22 9 24 1 26 5 28
REMARK Flexibility Score: inf
ROOT
ATOM      1  C   UNL     1      27.550 -12.109  32.017  1.00  0.00     0.402 A 
ATOM      2  O   UNL     1      26.735 -12.969  32.625  1.00  0.00    -0.202 OA
ATOM      3  C   UNL     1      26.083 -12.683  33.749  1.00  0.00     0.368 A 
ATOM      4  C   UNL     1      25.248 -13.642  34.328  1.00  0.00     0.162 A 
ATOM      5  C   UNL     1      24.560 -13.357  35.511  1.00  0.00     0.128 A 
ATOM      6  C   UNL     1      24.707 -12.103  36.119  1.00  0.00     0.093 A 
ATOM      7  C   UNL     1      25.541 -11.129  35.549  1.00  0.00     0.136 A 
ATOM      8  C   UNL     1      26.233 -11.419  34.359  1.00  0.00     0.125 A 
ATOM      9  C   UNL     1      27.072 -10.484  33.741  1.00  0.00     0.078 A 
ATOM     10  C   UNL     1      27.732 -10.818  32.555  1.00  0.00     0.223 A 
ENDROOT
BRANCH   1  11
ATOM     11  C   UNL     1      28.228 -12.546  30.776  1.00  0.00     0.091 A 
ATOM     12  C   UNL     1      29.601 -12.846  30.756  1.00  0.00     0.068 A 
ATOM     13  C   UNL     1      30.220 -13.280  29.576  1.00  0.00     0.162 A 
ATOM     14  C   UNL     1      27.475 -12.720  29.604  1.00  0.00     0.068 A 
ATOM     15  C   UNL     1      29.462 -13.428  28.402  1.00  0.00     0.200 A 
ATOM     16  C   UNL     1      28.084 -13.150  28.421  1.00  0.00     0.162 A 
BRANCH  13  17
ATOM     17  O   UNL     1      31.583 -13.568  29.567  1.00  0.00    -0.504 OA
ATOM     18  H   UNL     1      32.185 -13.312  30.341  1.00  0.00     0.293 HD
ENDBRANCH  13  17
BRANCH  15  19
ATOM     19  O   UNL     1      30.063 -13.854  27.216  1.00  0.00    -0.502 OA
ATOM     20  H   UNL     1      30.896 -13.412  26.843  1.00  0.00     0.293 HD
ENDBRANCH  15  19
BRANCH  16  21
ATOM     21  O   UNL     1      27.305 -13.295  27.274  1.00  0.00    -0.504 OA
ATOM     22  H   UNL     1      27.144 -12.530  26.631  1.00  0.00     0.293 HD
ENDBRANCH  16  21
ENDBRANCH   1  11
BRANCH  10  23
ATOM     23  O   UNL     1      28.529  -9.875  31.908  1.00  0.00    -0.500 OA
ATOM     24  H   UNL     1      28.196  -9.363  31.099  1.00  0.00     0.294 HD
ENDBRANCH  10  23
BRANCH   5  25
ATOM     25  O   UNL     1      23.732 -14.326  36.074  1.00  0.00    -0.507 OA
ATOM     26  H   UNL     1      22.726 -14.210  36.102  1.00  0.00     0.293 HD
ENDBRANCH   5  25
BRANCH   7  27
ATOM     27  O   UNL     1      25.678  -9.883  36.163  1.00  0.00    -0.507 OA
ATOM     28  H   UNL     1      24.972  -9.163  36.066  1.00  0.00     0.293 HD
ENDBRANCH   7  27
TORSDOF 7
ENDMDL
MODEL 7
REMARK VINA RESULT:    -2.793      2.133      7.547
REMARK INTER + INTRA:          -3.587
REMARK INTER:                  -3.929
REMARK INTRA:                   0.343
REMARK UNBOUND:                -0.140
REMARK SMILES Oc1cc(O)c2cc(O)c(-c3cc(O)c(O)c(O)c3)[o+]c2c1
REMARK SMILES IDX 10 1 20 2 21 3 22 4 2 5 3 6 4 7 6 8 7 9 8 10 11 11 12 12
REMARK SMILES IDX 13 13 19 14 15 15 17 16 14 17 16 19 18 21 9 23 1 25 5 27
REMARK H PARENT 14 18 16 20 18 22 9 24 1 26 5 28
REMARK Flexibility Score: inf
ROOT
ATOM      1  C   UNL     1      27.501 -11.801  30.849  1.00  0.00     0.402 A 
ATOM      2  O   UNL     1      27.122 -12.676  29.920  1.00  0.00    -0.202 OA
ATOM      3  C   UNL     1      27.534 -12.622  28.656  1.00  0.00     0.368 A 
ATOM      4  C   UNL     1      27.085 -13.577  27.741  1.00  0.00     0.162 A 
ATOM      5  C   UNL     1      27.507 -13.530  26.409  1.00  0.00     0.128 A 
ATOM      6  C   UNL     1      28.384 -12.521  25.990  1.00  0.00     0.093 A 
ATOM      7  C   UNL     1      28.844 -11.555  26.898  1.00  0.00     0.136 A 
ATOM      8  C   UNL     1      28.417 -11.604  28.238  1.00  0.00     0.125 A 
ATOM      9  C   UNL     1      28.849 -10.673  29.190  1.00  0.00     0.078 A 
ATOM     10  C   UNL     1      28.402 -10.770  30.510  1.00  0.00     0.223 A 
ENDROOT
BRANCH   1  11
ATOM     11  C   UNL     1      26.967 -11.960  32.221  1.00  0.00     0.091 A 
ATOM     12  C   UNL     1      26.490 -13.198  32.683  1.00  0.00     0.068 A 
ATOM     13  C   UNL     1      26.010 -13.333  33.993  1.00  0.00     0.162 A 
ATOM     14  C   UNL     1      26.988 -10.865  33.099  1.00  0.00     0.068 A 
ATOM     15  C   UNL     1      26.013 -12.226  34.858  1.00  0.00     0.200 A 
ATOM     16  C   UNL     1      26.509 -10.990  34.407  1.00  0.00     0.162 A 
BRANCH  13  17
ATOM     17  O   UNL     1      25.534 -14.565  34.438  1.00  0.00    -0.504 OA
ATOM     18  H   UNL     1      25.208 -14.697  35.388  1.00  0.00     0.293 HD
ENDBRANCH  13  17
BRANCH  15  19
ATOM     19  O   UNL     1      25.533 -12.341  36.164  1.00  0.00    -0.502 OA
ATOM     20  H   UNL     1      25.354 -13.240  36.596  1.00  0.00     0.293 HD
ENDBRANCH  15  19
BRANCH  16  21
ATOM     21  O   UNL     1      26.533  -9.875  35.244  1.00  0.00    -0.504 OA
ATOM     22  H   UNL     1      27.398  -9.468  35.575  1.00  0.00     0.293 HD
ENDBRANCH  16  21
ENDBRANCH   1  11
BRANCH  10  23
ATOM     23  O   UNL     1      28.867  -9.876  31.474  1.00  0.00    -0.500 OA
ATOM     24  H   UNL     1      29.563 -10.148  32.159  1.00  0.00     0.294 HD
ENDBRANCH  10  23
BRANCH   5  25
ATOM     25  O   UNL     1      27.050 -14.491  25.509  1.00  0.00    -0.507 OA
ATOM     26  H   UNL     1      27.502 -15.394  25.424  1.00  0.00     0.293 HD
ENDBRANCH   5  25
BRANCH   7  27
ATOM     27  O   UNL     1      29.719 -10.555  26.469  1.00  0.00    -0.507 OA
ATOM     28  H   UNL     1      30.156 -10.588  25.556  1.00  0.00     0.293 HD
ENDBRANCH   7  27
TORSDOF 7
ENDMDL
