MODEL 1
REMARK VINA RESULT:    -6.531      0.000      0.000
REMARK INTER + INTRA:          -7.609
REMARK INTER:                  -7.677
REMARK INTRA:                   0.068
REMARK UNBOUND:                 0.068
REMARK SMILES O=c1c(O)c(-c2ccc(O)cc2)oc2cc(O)cc(O)c12
REMARK SMILES IDX 5 1 3 2 2 3 1 4 21 5 19 6 18 7 16 8 15 9 14 10 13 11 6 12
REMARK SMILES IDX 7 13 8 14 9 15 12 16 11 17 10 18 4 20 20 22 17 24
REMARK H PARENT 10 19 4 21 20 23 17 25
REMARK Flexibility Score: inf
ROOT
ATOM      1  C   UNL     1       1.059   3.459  -7.303  1.00  0.00     0.180 A 
ATOM      2  C   UNL     1       0.116   4.373  -7.812  1.00  0.00     0.208 A 
ATOM      3  C   UNL     1      -0.221   5.498  -7.044  1.00  0.00     0.238 A 
ATOM      4  O   UNL     1      -1.073   6.318  -7.485  1.00  0.00    -0.285 OA
ATOM      5  C   UNL     1       0.401   5.702  -5.795  1.00  0.00     0.111 A 
ATOM      6  C   UNL     1       0.120   6.812  -4.962  1.00  0.00     0.134 A 
ATOM      7  C   UNL     1       0.788   6.948  -3.737  1.00  0.00     0.093 A 
ATOM      8  C   UNL     1       1.730   6.001  -3.328  1.00  0.00     0.123 A 
ATOM      9  C   UNL     1       2.011   4.902  -4.147  1.00  0.00     0.094 A 
ATOM     10  C   UNL     1       1.355   4.747  -5.372  1.00  0.00     0.146 A 
ATOM     11  O   UNL     1       1.637   3.692  -6.128  1.00  0.00    -0.452 OA
ENDROOT
BRANCH   1  12
ATOM     12  C   UNL     1       1.452   2.240  -8.044  1.00  0.00     0.021 A 
ATOM     13  C   UNL     1       1.805   2.290  -9.405  1.00  0.00     0.016 A 
ATOM     14  C   UNL     1       2.150   1.120 -10.090  1.00  0.00     0.047 A 
ATOM     15  C   UNL     1       2.136  -0.112  -9.429  1.00  0.00     0.115 A 
ATOM     16  C   UNL     1       1.420   0.995  -7.393  1.00  0.00     0.016 A 
ATOM     17  C   UNL     1       1.767  -0.172  -8.079  1.00  0.00     0.047 A 
BRANCH  15  18
ATOM     18  O   UNL     1       2.483  -1.269 -10.124  1.00  0.00    -0.508 OA
ATOM     19  H   UNL     1       2.271  -2.189  -9.758  1.00  0.00     0.293 HD
ENDBRANCH  15  18
ENDBRANCH   1  12
BRANCH   2  20
ATOM     20  O   UNL     1      -0.449   4.174  -9.074  1.00  0.00    -0.502 OA
ATOM     21  H   UNL     1      -1.432   3.964  -9.201  1.00  0.00     0.293 HD
ENDBRANCH   2  20
BRANCH   6  22
ATOM     22  O   UNL     1      -0.815   7.777  -5.341  1.00  0.00    -0.507 OA
ATOM     23  H   UNL     1      -1.402   7.658  -6.159  1.00  0.00     0.293 HD
ENDBRANCH   6  22
BRANCH   8  24
ATOM     24  O   UNL     1       2.381   6.161  -2.107  1.00  0.00    -0.508 OA
ATOM     25  H   UNL     1       2.973   5.434  -1.723  1.00  0.00     0.293 HD
ENDBRANCH   8  24
TORSDOF 5
ENDMDL
MODEL 2
REMARK VINA RESULT:    -6.360      2.859      5.834
REMARK INTER + INTRA:          -7.408
REMARK INTER:                  -7.222
REMARK INTRA:                  -0.186
REMARK UNBOUND:                 0.068
REMARK SMILES O=c1c(O)c(-c2ccc(O)cc2)oc2cc(O)cc(O)c12
REMARK SMILES IDX 5 1 3 2 2 3 1 4 21 5 19 6 18 7 16 8 15 9 14 10 13 11 6 12
REMARK SMILES IDX 7 13 8 14 9 15 12 16 11 17 10 18 4 20 20 22 17 24
REMARK H PARENT 10 19 4 21 20 23 17 25
REMARK Flexibility Score: inf
ROOT
ATOM      1  C   UNL     1      -0.440   6.553  -6.640  1.00  0.00     0.180 A 
ATOM      2  C   UNL     1       0.066   5.361  -7.193  1.00  0.00     0.208 A 
ATOM      3  C   UNL     1       1.011   4.622  -6.465  1.00  0.00     0.238 A 
ATOM      4  O   UNL     1       1.479   3.558  -6.956  1.00  0.00    -0.285 OA
ATOM      5  C   UNL     1       1.418   5.072  -5.192  1.00  0.00     0.111 A 
ATOM      6  C   UNL     1       2.362   4.384  -4.393  1.00  0.00     0.134 A 
ATOM      7  C   UNL     1       2.708   4.893  -3.132  1.00  0.00     0.093 A 
ATOM      8  C   UNL     1       2.130   6.072  -2.656  1.00  0.00     0.123 A 
ATOM      9  C   UNL     1       1.197   6.757  -3.442  1.00  0.00     0.094 A 
ATOM     10  C   UNL     1       0.839   6.267  -4.702  1.00  0.00     0.146 A 
ATOM     11  O   UNL     1      -0.045   6.939  -5.429  1.00  0.00    -0.452 OA
ENDROOT
BRANCH   1  12
ATOM     12  C   UNL     1      -1.424   7.397  -7.353  1.00  0.00     0.021 A 
ATOM     13  C   UNL     1      -1.082   8.085  -8.533  1.00  0.00     0.016 A 
ATOM     14  C   UNL     1      -2.022   8.896  -9.176  1.00  0.00     0.047 A 
ATOM     15  C   UNL     1      -3.307   9.041  -8.646  1.00  0.00     0.115 A 
ATOM     16  C   UNL     1      -2.711   7.565  -6.815  1.00  0.00     0.016 A 
ATOM     17  C   UNL     1      -3.649   8.376  -7.461  1.00  0.00     0.047 A 
BRANCH  15  18
ATOM     18  O   UNL     1      -4.233   9.852  -9.299  1.00  0.00    -0.508 OA
ATOM     19  H   UNL     1      -4.790   9.503 -10.070  1.00  0.00     0.293 HD
ENDBRANCH  15  18
ENDBRANCH   1  12
BRANCH   2  20
ATOM     20  O   UNL     1      -0.390   4.911  -8.435  1.00  0.00    -0.502 OA
ATOM     21  H   UNL     1      -0.452   3.927  -8.666  1.00  0.00     0.293 HD
ENDBRANCH   2  20
BRANCH   6  22
ATOM     22  O   UNL     1       2.956   3.203  -4.839  1.00  0.00    -0.507 OA
ATOM     23  H   UNL     1       2.465   2.317  -4.815  1.00  0.00     0.293 HD
ENDBRANCH   6  22
BRANCH   8  24
ATOM     24  O   UNL     1       2.490   6.555  -1.400  1.00  0.00    -0.508 OA
ATOM     25  H   UNL     1       2.149   7.446  -1.057  1.00  0.00     0.293 HD
ENDBRANCH   8  24
TORSDOF 5
ENDMDL
MODEL 3
REMARK VINA RESULT:    -6.294      2.237      4.212
REMARK INTER + INTRA:          -7.330
REMARK INTER:                  -7.038
REMARK INTRA:                  -0.292
REMARK UNBOUND:                 0.068
REMARK SMILES O=c1c(O)c(-c2ccc(O)cc2)oc2cc(O)cc(O)c12
REMARK SMILES IDX 5 1 3 2 2 3 1 4 21 5 19 6 18 7 16 8 15 9 14 10 13 11 6 12
REMARK SMILES IDX 7 13 8 14 9 15 12 16 11 17 10 18 4 20 20 22 17 24
REMARK H PARENT 10 19 4 21 20 23 17 25
REMARK Flexibility Score: inf
ROOT
ATOM      1  C   UNL     1       1.191   5.397  -5.103  1.00  0.00     0.180 A 
ATOM      2  C   UNL     1       2.181   4.991  -4.189  1.00  0.00     0.208 A 
ATOM      3  C   UNL     1       2.308   5.683  -2.974  1.00  0.00     0.238 A 
ATOM      4  O   UNL     1       3.200   5.334  -2.152  1.00  0.00    -0.285 OA
ATOM      5  C   UNL     1       1.435   6.750  -2.684  1.00  0.00     0.111 A 
ATOM      6  C   UNL     1       1.493   7.495  -1.482  1.00  0.00     0.134 A 
ATOM      7  C   UNL     1       0.581   8.538  -1.265  1.00  0.00     0.093 A 
ATOM      8  C   UNL     1      -0.387   8.850  -2.222  1.00  0.00     0.123 A 
ATOM      9  C   UNL     1      -0.449   8.118  -3.413  1.00  0.00     0.094 A 
ATOM     10  C   UNL     1       0.452   7.075  -3.649  1.00  0.00     0.146 A 
ATOM     11  O   UNL     1       0.373   6.399  -4.790  1.00  0.00    -0.452 OA
ENDROOT
BRANCH   1  12
ATOM     12  C   UNL     1       1.007   4.732  -6.412  1.00  0.00     0.021 A 
ATOM     13  C   UNL     1       1.631   5.218  -7.576  1.00  0.00     0.016 A 
ATOM     14  C   UNL     1       1.423   4.586  -8.806  1.00  0.00     0.047 A 
ATOM     15  C   UNL     1       0.581   3.473  -8.892  1.00  0.00     0.115 A 
ATOM     16  C   UNL     1       0.146   3.626  -6.511  1.00  0.00     0.016 A 
ATOM     17  C   UNL     1      -0.060   2.996  -7.742  1.00  0.00     0.047 A 
BRANCH  15  18
ATOM     18  O   UNL     1       0.384   2.854 -10.125  1.00  0.00    -0.508 OA
ATOM     19  H   UNL     1      -0.392   3.107 -10.726  1.00  0.00     0.293 HD
ENDBRANCH  15  18
ENDBRANCH   1  12
BRANCH   2  20
ATOM     20  O   UNL     1       3.003   3.899  -4.478  1.00  0.00    -0.502 OA
ATOM     21  H   UNL     1       3.912   4.003  -4.912  1.00  0.00     0.293 HD
ENDBRANCH   2  20
BRANCH   6  22
ATOM     22  O   UNL     1       2.448   7.207  -0.504  1.00  0.00    -0.507 OA
ATOM     23  H   UNL     1       2.907   6.305  -0.457  1.00  0.00     0.293 HD
ENDBRANCH   6  22
BRANCH   8  24
ATOM     24  O   UNL     1      -1.282   9.890  -1.981  1.00  0.00    -0.508 OA
ATOM     25  H   UNL     1      -2.258   9.821  -2.244  1.00  0.00     0.293 HD
ENDBRANCH   8  24
TORSDOF 5
ENDMDL
MODEL 4
REMARK VINA RESULT:    -6.114      1.665      2.747
REMARK INTER + INTRA:          -7.118
REMARK INTER:                  -7.460
REMARK INTRA:                   0.342
REMARK UNBOUND:                 0.068
REMARK SMILES O=c1c(O)c(-c2ccc(O)cc2)oc2cc(O)cc(O)c12
REMARK SMILES IDX 5 1 3 2 2 3 1 4 21 5 19 6 18 7 16 8 15 9 14 10 13 11 6 12
REMARK SMILES IDX 7 13 8 14 9 15 12 16 11 17 10 18 4 20 20 22 17 24
REMARK H PARENT 10 19 4 21 20 23 17 25
REMARK Flexibility Score: inf
ROOT
ATOM      1  C   UNL     1       0.713   5.056  -5.646  1.00  0.00     0.180 A 
ATOM      2  C   UNL     1      -0.371   5.922  -5.408  1.00  0.00     0.208 A 
ATOM      3  C   UNL     1      -0.358   6.725  -4.257  1.00  0.00     0.238 A 
ATOM      4  O   UNL     1      -1.330   7.497  -4.029  1.00  0.00    -0.285 OA
ATOM      5  C   UNL     1       0.741   6.665  -3.377  1.00  0.00     0.111 A 
ATOM      6  C   UNL     1       0.833   7.443  -2.198  1.00  0.00     0.134 A 
ATOM      7  C   UNL     1       1.965   7.333  -1.378  1.00  0.00     0.093 A 
ATOM      8  C   UNL     1       3.006   6.463  -1.712  1.00  0.00     0.123 A 
ATOM      9  C   UNL     1       2.920   5.690  -2.875  1.00  0.00     0.094 A 
ATOM     10  C   UNL     1       1.799   5.785  -3.705  1.00  0.00     0.146 A 
ATOM     11  O   UNL     1       1.741   5.037  -4.801  1.00  0.00    -0.452 OA
ENDROOT
BRANCH   1  12
ATOM     12  C   UNL     1       0.765   4.164  -6.826  1.00  0.00     0.021 A 
ATOM     13  C   UNL     1       0.082   4.481  -8.015  1.00  0.00     0.016 A 
ATOM     14  C   UNL     1       0.126   3.611  -9.109  1.00  0.00     0.047 A 
ATOM     15  C   UNL     1       0.840   2.411  -9.026  1.00  0.00     0.115 A 
ATOM     16  C   UNL     1       1.462   2.947  -6.743  1.00  0.00     0.016 A 
ATOM     17  C   UNL     1       1.505   2.080  -7.839  1.00  0.00     0.047 A 
BRANCH  15  18
ATOM     18  O   UNL     1       0.876   1.555 -10.124  1.00  0.00    -0.508 OA
ATOM     19  H   UNL     1       0.128   1.540 -10.808  1.00  0.00     0.293 HD
ENDBRANCH  15  18
ENDBRANCH   1  12
BRANCH   2  20
ATOM     20  O   UNL     1      -1.426   5.999  -6.321  1.00  0.00    -0.502 OA
ATOM     21  H   UNL     1      -1.326   6.435  -7.230  1.00  0.00     0.293 HD
ENDBRANCH   2  20
BRANCH   6  22
ATOM     22  O   UNL     1      -0.189   8.323  -1.836  1.00  0.00    -0.507 OA
ATOM     23  H   UNL     1      -0.070   9.328  -1.889  1.00  0.00     0.293 HD
ENDBRANCH   6  22
BRANCH   8  24
ATOM     24  O   UNL     1       4.120   6.373  -0.881  1.00  0.00    -0.508 OA
ATOM     25  H   UNL     1       4.041   6.058   0.079  1.00  0.00     0.293 HD
ENDBRANCH   8  24
TORSDOF 5
ENDMDL
MODEL 5
REMARK VINA RESULT:    -6.019      3.566      7.529
REMARK INTER + INTRA:          -7.007
REMARK INTER:                  -6.761
REMARK INTRA:                  -0.246
REMARK UNBOUND:                 0.068
REMARK SMILES O=c1c(O)c(-c2ccc(O)cc2)oc2cc(O)cc(O)c12
REMARK SMILES IDX 5 1 3 2 2 3 1 4 21 5 19 6 18 7 16 8 15 9 14 10 13 11 6 12
REMARK SMILES IDX 7 13 8 14 9 15 12 16 11 17 10 18 4 20 20 22 17 24
REMARK H PARENT 10 19 4 21 20 23 17 25
REMARK Flexibility Score: inf
ROOT
ATOM      1  C   UNL     1      -1.884   7.424  -4.348  1.00  0.00     0.180 A 
ATOM      2  C   UNL     1      -1.874   6.963  -5.678  1.00  0.00     0.208 A 
ATOM      3  C   UNL     1      -0.727   6.317  -6.164  1.00  0.00     0.238 A 
ATOM      4  O   UNL     1      -0.704   5.909  -7.358  1.00  0.00    -0.285 OA
ATOM      5  C   UNL     1       0.379   6.124  -5.311  1.00  0.00     0.111 A 
ATOM      6  C   UNL     1       1.570   5.478  -5.722  1.00  0.00     0.134 A 
ATOM      7  C   UNL     1       2.623   5.317  -4.810  1.00  0.00     0.093 A 
ATOM      8  C   UNL     1       2.510   5.785  -3.499  1.00  0.00     0.123 A 
ATOM      9  C   UNL     1       1.334   6.424  -3.087  1.00  0.00     0.094 A 
ATOM     10  C   UNL     1       0.274   6.596  -3.982  1.00  0.00     0.146 A 
ATOM     11  O   UNL     1      -0.828   7.211  -3.567  1.00  0.00    -0.452 OA
ENDROOT
BRANCH   1  12
ATOM     12  C   UNL     1      -3.047   8.132  -3.768  1.00  0.00     0.021 A 
ATOM     13  C   UNL     1      -3.332   9.470  -4.099  1.00  0.00     0.016 A 
ATOM     14  C   UNL     1      -4.423  10.125  -3.520  1.00  0.00     0.047 A 
ATOM     15  C   UNL     1      -5.234   9.459  -2.596  1.00  0.00     0.115 A 
ATOM     16  C   UNL     1      -3.854   7.477  -2.823  1.00  0.00     0.016 A 
ATOM     17  C   UNL     1      -4.945   8.134  -2.246  1.00  0.00     0.047 A 
BRANCH  15  18
ATOM     18  O   UNL     1      -6.318  10.125  -2.028  1.00  0.00    -0.508 OA
ATOM     19  H   UNL     1      -7.272   9.883  -2.269  1.00  0.00     0.293 HD
ENDBRANCH  15  18
ENDBRANCH   1  12
BRANCH   2  20
ATOM     20  O   UNL     1      -3.001   7.123  -6.489  1.00  0.00    -0.502 OA
ATOM     21  H   UNL     1      -3.185   7.978  -7.000  1.00  0.00     0.293 HD
ENDBRANCH   2  20
BRANCH   6  22
ATOM     22  O   UNL     1       1.715   4.998  -7.025  1.00  0.00    -0.507 OA
ATOM     23  H   UNL     1       0.926   4.642  -7.552  1.00  0.00     0.293 HD
ENDBRANCH   6  22
BRANCH   8  24
ATOM     24  O   UNL     1       3.570   5.611  -2.612  1.00  0.00    -0.508 OA
ATOM     25  H   UNL     1       4.416   6.163  -2.683  1.00  0.00     0.293 HD
ENDBRANCH   8  24
TORSDOF 5
ENDMDL
MODEL 6
REMARK VINA RESULT:    -5.936      1.665      3.639
REMARK INTER + INTRA:          -6.909
REMARK INTER:                  -7.246
REMARK INTRA:                   0.336
REMARK UNBOUND:                 0.068
REMARK SMILES O=c1c(O)c(-c2ccc(O)cc2)oc2cc(O)cc(O)c12
REMARK SMILES IDX 5 1 3 2 2 3 1 4 21 5 19 6 18 7 16 8 15 9 14 10 13 11 6 12
REMARK SMILES IDX 7 13 8 14 9 15 12 16 11 17 10 18 4 20 20 22 17 24
REMARK H PARENT 10 19 4 21 20 23 17 25
REMARK Flexibility Score: inf
ROOT
ATOM      1  C   UNL     1       0.780   5.024  -5.744  1.00  0.00     0.180 A 
ATOM      2  C   UNL     1       1.695   5.012  -4.674  1.00  0.00     0.208 A 
ATOM      3  C   UNL     1       1.527   5.932  -3.627  1.00  0.00     0.238 A 
ATOM      4  O   UNL     1       2.347   5.937  -2.668  1.00  0.00    -0.285 OA
ATOM      5  C   UNL     1       0.441   6.830  -3.656  1.00  0.00     0.111 A 
ATOM      6  C   UNL     1       0.198   7.784  -2.639  1.00  0.00     0.134 A 
ATOM      7  C   UNL     1      -0.910   8.638  -2.736  1.00  0.00     0.093 A 
ATOM      8  C   UNL     1      -1.780   8.556  -3.826  1.00  0.00     0.123 A 
ATOM      9  C   UNL     1      -1.545   7.615  -4.835  1.00  0.00     0.094 A 
ATOM     10  C   UNL     1      -0.444   6.756  -4.757  1.00  0.00     0.146 A 
ATOM     11  O   UNL     1      -0.242   5.876  -5.730  1.00  0.00    -0.452 OA
ENDROOT
BRANCH   1  12
ATOM     12  C   UNL     1       0.901   4.100  -6.894  1.00  0.00     0.021 A 
ATOM     13  C   UNL     1       0.436   4.456  -8.174  1.00  0.00     0.016 A 
ATOM     14  C   UNL     1       0.540   3.557  -9.239  1.00  0.00     0.047 A 
ATOM     15  C   UNL     1       1.094   2.289  -9.039  1.00  0.00     0.115 A 
ATOM     16  C   UNL     1       1.438   2.817  -6.696  1.00  0.00     0.016 A 
ATOM     17  C   UNL     1       1.541   1.920  -7.764  1.00  0.00     0.047 A 
BRANCH  15  18
ATOM     18  O   UNL     1       1.192   1.404 -10.111  1.00  0.00    -0.508 OA
ATOM     19  H   UNL     1       1.949   0.733 -10.175  1.00  0.00     0.293 HD
ENDBRANCH  15  18
ENDBRANCH   1  12
BRANCH   2  20
ATOM     20  O   UNL     1       2.735   4.079  -4.645  1.00  0.00    -0.502 OA
ATOM     21  H   UNL     1       3.677   4.325  -4.369  1.00  0.00     0.293 HD
ENDBRANCH   2  20
BRANCH   6  22
ATOM     22  O   UNL     1       1.048   7.891  -1.536  1.00  0.00    -0.507 OA
ATOM     23  H   UNL     1       2.055   7.920  -1.640  1.00  0.00     0.293 HD
ENDBRANCH   6  22
BRANCH   8  24
ATOM     24  O   UNL     1      -2.875   9.415  -3.898  1.00  0.00    -0.508 OA
ATOM     25  H   UNL     1      -2.885  10.209  -4.527  1.00  0.00     0.293 HD
ENDBRANCH   8  24
TORSDOF 5
ENDMDL
MODEL 7
REMARK VINA RESULT:    -5.866      2.980      7.785
REMARK INTER + INTRA:          -6.827
REMARK INTER:                  -6.540
REMARK INTRA:                  -0.287
REMARK UNBOUND:                 0.068
REMARK SMILES O=c1c(O)c(-c2ccc(O)cc2)oc2cc(O)cc(O)c12
REMARK SMILES IDX 5 1 3 2 2 3 1 4 21 5 19 6 18 7 16 8 15 9 14 10 13 11 6 12
REMARK SMILES IDX 7 13 8 14 9 15 12 16 11 17 10 18 4 20 20 22 17 24
REMARK H PARENT 10 19 4 21 20 23 17 25
REMARK Flexibility Score: inf
ROOT
ATOM      1  C   UNL     1      -1.233   6.873  -4.094  1.00  0.00     0.180 A 
ATOM      2  C   UNL     1      -0.057   6.851  -3.321  1.00  0.00     0.208 A 
ATOM      3  C   UNL     1       0.993   6.005  -3.708  1.00  0.00     0.238 A 
ATOM      4  O   UNL     1       2.048   5.969  -3.015  1.00  0.00    -0.285 OA
ATOM      5  C   UNL     1       0.861   5.213  -4.866  1.00  0.00     0.111 A 
ATOM      6  C   UNL     1       1.873   4.337  -5.326  1.00  0.00     0.134 A 
ATOM      7  C   UNL     1       1.668   3.589  -6.495  1.00  0.00     0.093 A 
ATOM      8  C   UNL     1       0.475   3.699  -7.212  1.00  0.00     0.123 A 
ATOM      9  C   UNL     1      -0.530   4.563  -6.761  1.00  0.00     0.094 A 
ATOM     10  C   UNL     1      -0.345   5.316  -5.598  1.00  0.00     0.146 A 
ATOM     11  O   UNL     1      -1.317   6.124  -5.191  1.00  0.00    -0.452 OA
ENDROOT
BRANCH   1  12
ATOM     12  C   UNL     1      -2.392   7.724  -3.742  1.00  0.00     0.021 A 
ATOM     13  C   UNL     1      -2.473   9.065  -4.163  1.00  0.00     0.016 A 
ATOM     14  C   UNL     1      -3.566   9.856  -3.797  1.00  0.00     0.047 A 
ATOM     15  C   UNL     1      -4.583   9.325  -2.998  1.00  0.00     0.115 A 
ATOM     16  C   UNL     1      -3.407   7.205  -2.921  1.00  0.00     0.016 A 
ATOM     17  C   UNL     1      -4.499   7.998  -2.558  1.00  0.00     0.047 A 
BRANCH  15  18
ATOM     18  O   UNL     1      -5.667  10.125  -2.642  1.00  0.00    -0.508 OA
ATOM     19  H   UNL     1      -6.285  10.520  -3.341  1.00  0.00     0.293 HD
ENDBRANCH  15  18
ENDBRANCH   1  12
BRANCH   2  20
ATOM     20  O   UNL     1       0.069   7.682  -2.204  1.00  0.00    -0.502 OA
ATOM     21  H   UNL     1       0.964   7.882  -1.775  1.00  0.00     0.293 HD
ENDBRANCH   2  20
BRANCH   6  22
ATOM     22  O   UNL     1       3.079   4.205  -4.633  1.00  0.00    -0.507 OA
ATOM     23  H   UNL     1       3.459   3.296  -4.394  1.00  0.00     0.293 HD
ENDBRANCH   6  22
BRANCH   8  24
ATOM     24  O   UNL     1       0.296   2.946  -8.370  1.00  0.00    -0.508 OA
ATOM     25  H   UNL     1       1.078   2.693  -8.963  1.00  0.00     0.293 HD
ENDBRANCH   8  24
TORSDOF 5
ENDMDL
MODEL 8
REMARK VINA RESULT:    -5.840      3.662      6.311
REMARK INTER + INTRA:          -6.797
REMARK INTER:                  -6.620
REMARK INTRA:                  -0.176
REMARK UNBOUND:                 0.068
REMARK SMILES O=c1c(O)c(-c2ccc(O)cc2)oc2cc(O)cc(O)c12
REMARK SMILES IDX 5 1 3 2 2 3 1 4 21 5 19 6 18 7 16 8 15 9 14 10 13 11 6 12
REMARK SMILES IDX 7 13 8 14 9 15 12 16 11 17 10 18 4 20 20 22 17 24
REMARK H PARENT 10 19 4 21 20 23 17 25
REMARK Flexibility Score: inf
ROOT
ATOM      1  C   UNL     1      -0.596   7.495  -5.598  1.00  0.00     0.180 A 
ATOM      2  C   UNL     1      -0.491   8.222  -4.397  1.00  0.00     0.208 A 
ATOM      3  C   UNL     1       0.373   7.754  -3.394  1.00  0.00     0.238 A 
ATOM      4  O   UNL     1       0.467   8.392  -2.309  1.00  0.00    -0.285 OA
ATOM      5  C   UNL     1       1.129   6.585  -3.615  1.00  0.00     0.111 A 
ATOM      6  C   UNL     1       2.024   6.049  -2.658  1.00  0.00     0.134 A 
ATOM      7  C   UNL     1       2.748   4.886  -2.957  1.00  0.00     0.093 A 
ATOM      8  C   UNL     1       2.595   4.248  -4.191  1.00  0.00     0.123 A 
ATOM      9  C   UNL     1       1.711   4.773  -5.140  1.00  0.00     0.094 A 
ATOM     10  C   UNL     1       0.980   5.931  -4.860  1.00  0.00     0.146 A 
ATOM     11  O   UNL     1       0.144   6.404  -5.778  1.00  0.00    -0.452 OA
ENDROOT
BRANCH   1  12
ATOM     12  C   UNL     1      -1.499   7.913  -6.694  1.00  0.00     0.021 A 
ATOM     13  C   UNL     1      -2.898   7.896  -6.540  1.00  0.00     0.016 A 
ATOM     14  C   UNL     1      -3.730   8.272  -7.598  1.00  0.00     0.047 A 
ATOM     15  C   UNL     1      -3.180   8.656  -8.824  1.00  0.00     0.115 A 
ATOM     16  C   UNL     1      -0.955   8.280  -7.936  1.00  0.00     0.016 A 
ATOM     17  C   UNL     1      -1.789   8.657  -8.992  1.00  0.00     0.047 A 
BRANCH  15  18
ATOM     18  O   UNL     1      -4.023   9.030  -9.870  1.00  0.00    -0.508 OA
ATOM     19  H   UNL     1      -4.991   9.280  -9.705  1.00  0.00     0.293 HD
ENDBRANCH  15  18
ENDBRANCH   1  12
BRANCH   2  20
ATOM     20  O   UNL     1      -1.214   9.405  -4.221  1.00  0.00    -0.502 OA
ATOM     21  H   UNL     1      -1.583   9.936  -5.001  1.00  0.00     0.293 HD
ENDBRANCH   2  20
BRANCH   6  22
ATOM     22  O   UNL     1       2.200   6.663  -1.416  1.00  0.00    -0.507 OA
ATOM     23  H   UNL     1       3.103   6.684  -0.956  1.00  0.00     0.293 HD
ENDBRANCH   6  22
BRANCH   8  24
ATOM     24  O   UNL     1       3.327   3.095  -4.464  1.00  0.00    -0.508 OA
ATOM     25  H   UNL     1       3.994   3.058  -5.225  1.00  0.00     0.293 HD
ENDBRANCH   8  24
TORSDOF 5
ENDMDL
MODEL 9
REMARK VINA RESULT:    -5.836      3.255      7.772
REMARK INTER + INTRA:          -6.792
REMARK INTER:                  -6.647
REMARK INTRA:                  -0.145
REMARK UNBOUND:                 0.068
REMARK SMILES O=c1c(O)c(-c2ccc(O)cc2)oc2cc(O)cc(O)c12
REMARK SMILES IDX 5 1 3 2 2 3 1 4 21 5 19 6 18 7 16 8 15 9 14 10 13 11 6 12
REMARK SMILES IDX 7 13 8 14 9 15 12 16 11 17 10 18 4 20 20 22 17 24
REMARK H PARENT 10 19 4 21 20 23 17 25
REMARK Flexibility Score: inf
ROOT
ATOM      1  C   UNL     1      -1.993   7.505  -4.564  1.00  0.00     0.180 A 
ATOM      2  C   UNL     1      -2.366   7.733  -5.902  1.00  0.00     0.208 A 
ATOM      3  C   UNL     1      -1.692   7.044  -6.922  1.00  0.00     0.238 A 
ATOM      4  O   UNL     1      -2.011   7.249  -8.126  1.00  0.00    -0.285 OA
ATOM      5  C   UNL     1      -0.674   6.127  -6.589  1.00  0.00     0.111 A 
ATOM      6  C   UNL     1       0.051   5.390  -7.556  1.00  0.00     0.134 A 
ATOM      7  C   UNL     1       1.044   4.489  -7.144  1.00  0.00     0.093 A 
ATOM      8  C   UNL     1       1.325   4.310  -5.788  1.00  0.00     0.123 A 
ATOM      9  C   UNL     1       0.613   5.037  -4.827  1.00  0.00     0.094 A 
ATOM     10  C   UNL     1      -0.380   5.940  -5.218  1.00  0.00     0.146 A 
ATOM     11  O   UNL     1      -1.038   6.620  -4.286  1.00  0.00    -0.452 OA
ENDROOT
BRANCH   1  12
ATOM     12  C   UNL     1      -2.642   8.206  -3.434  1.00  0.00     0.021 A 
ATOM     13  C   UNL     1      -1.927   9.104  -2.620  1.00  0.00     0.016 A 
ATOM     14  C   UNL     1      -2.557   9.737  -1.543  1.00  0.00     0.047 A 
ATOM     15  C   UNL     1      -3.900   9.472  -1.259  1.00  0.00     0.115 A 
ATOM     16  C   UNL     1      -3.985   7.929  -3.128  1.00  0.00     0.016 A 
ATOM     17  C   UNL     1      -4.612   8.564  -2.052  1.00  0.00     0.047 A 
BRANCH  15  18
ATOM     18  O   UNL     1      -4.514  10.111  -0.183  1.00  0.00    -0.508 OA
ATOM     19  H   UNL     1      -4.795   9.600   0.645  1.00  0.00     0.293 HD
ENDBRANCH  15  18
ENDBRANCH   1  12
BRANCH   2  20
ATOM     20  O   UNL     1      -3.412   8.610  -6.203  1.00  0.00    -0.502 OA
ATOM     21  H   UNL     1      -3.379   9.594  -5.966  1.00  0.00     0.293 HD
ENDBRANCH   2  20
BRANCH   6  22
ATOM     22  O   UNL     1      -0.207   5.545  -8.920  1.00  0.00    -0.507 OA
ATOM     23  H   UNL     1       0.492   5.911  -9.556  1.00  0.00     0.293 HD
ENDBRANCH   6  22
BRANCH   8  24
ATOM     24  O   UNL     1       2.316   3.408  -5.404  1.00  0.00    -0.508 OA
ATOM     25  H   UNL     1       2.159   2.408  -5.430  1.00  0.00     0.293 HD
ENDBRANCH   8  24
TORSDOF 5
ENDMDL
