MODEL 1
REMARK VINA RESULT:    -6.865      0.000      0.000
REMARK INTER + INTRA:          -7.777
REMARK INTER:                  -8.269
REMARK INTRA:                   0.493
REMARK UNBOUND:                 0.493
REMARK SMILES O=c1c(O)c(-c2ccc(O)c(O)c2)oc2cc(O)cc(O)c12
REMARK SMILES IDX 5 1 3 2 2 3 1 4 22 5 20 6 19 7 17 8 16 9 15 10 14 11 6 12
REMARK SMILES IDX 7 13 8 14 9 15 13 16 11 17 10 18 12 20 4 22 21 24 18 26
REMARK H PARENT 10 19 12 21 4 23 21 25 18 27
REMARK Flexibility Score: inf
ROOT
ATOM      1  C   UNL     1      -8.733  -6.928   3.482  1.00  0.00     0.180 A 
ATOM      2  C   UNL     1      -8.323  -8.232   3.157  1.00  0.00     0.208 A 
ATOM      3  C   UNL     1      -8.712  -8.780   1.923  1.00  0.00     0.238 A 
ATOM      4  O   UNL     1      -8.297  -9.927   1.614  1.00  0.00    -0.285 OA
ATOM      5  C   UNL     1      -9.520  -8.024   1.040  1.00  0.00     0.111 A 
ATOM      6  C   UNL     1     -10.005  -8.494  -0.217  1.00  0.00     0.134 A 
ATOM      7  C   UNL     1     -10.687  -7.615  -1.067  1.00  0.00     0.093 A 
ATOM      8  C   UNL     1     -10.956  -6.300  -0.678  1.00  0.00     0.123 A 
ATOM      9  C   UNL     1     -10.537  -5.849   0.572  1.00  0.00     0.094 A 
ATOM     10  C   UNL     1      -9.823  -6.693   1.427  1.00  0.00     0.146 A 
ATOM     11  O   UNL     1      -9.435  -6.220   2.605  1.00  0.00    -0.452 OA
ENDROOT
BRANCH   1  12
ATOM     12  C   UNL     1      -8.383  -6.292   4.773  1.00  0.00     0.025 A 
ATOM     13  C   UNL     1      -7.371  -6.851   5.565  1.00  0.00     0.016 A 
ATOM     14  C   UNL     1      -7.012  -6.256   6.776  1.00  0.00     0.051 A 
ATOM     15  C   UNL     1      -7.642  -5.085   7.211  1.00  0.00     0.157 A 
ATOM     16  C   UNL     1      -9.003  -5.104   5.196  1.00  0.00     0.062 A 
ATOM     17  C   UNL     1      -8.647  -4.497   6.407  1.00  0.00     0.158 A 
BRANCH  15  18
ATOM     18  O   UNL     1      -7.241  -4.544   8.435  1.00  0.00    -0.504 OA
ATOM     19  H   UNL     1      -6.447  -4.874   8.965  1.00  0.00     0.293 HD
ENDBRANCH  15  18
BRANCH  17  20
ATOM     20  O   UNL     1      -9.305  -3.320   6.765  1.00  0.00    -0.504 OA
ATOM     21  H   UNL     1     -10.149  -3.290   7.320  1.00  0.00     0.293 HD
ENDBRANCH  17  20
ENDBRANCH   1  12
BRANCH   2  22
ATOM     22  O   UNL     1      -7.509  -8.953   4.034  1.00  0.00    -0.502 OA
ATOM     23  H   UNL     1      -7.738  -9.890   4.344  1.00  0.00     0.293 HD
ENDBRANCH   2  22
BRANCH   6  24
ATOM     24  O   UNL     1      -9.871  -9.813  -0.662  1.00  0.00    -0.507 OA
ATOM     25  H   UNL     1     -10.456 -10.580  -0.368  1.00  0.00     0.293 HD
ENDBRANCH   6  24
BRANCH   8  26
ATOM     26  O   UNL     1     -11.647  -5.436  -1.523  1.00  0.00    -0.508 OA
ATOM     27  H   UNL     1     -12.533  -5.697  -1.940  1.00  0.00     0.293 HD
ENDBRANCH   8  26
TORSDOF 6
ENDMDL
MODEL 2
REMARK VINA RESULT:    -6.756      2.334      4.284
REMARK INTER + INTRA:          -7.646
REMARK INTER:                  -8.055
REMARK INTRA:                   0.410
REMARK UNBOUND:                 0.493
REMARK SMILES O=c1c(O)c(-c2ccc(O)c(O)c2)oc2cc(O)cc(O)c12
REMARK SMILES IDX 5 1 3 2 2 3 1 4 22 5 20 6 19 7 17 8 16 9 15 10 14 11 6 12
REMARK SMILES IDX 7 13 8 14 9 15 13 16 11 17 10 18 12 20 4 22 21 24 18 26
REMARK H PARENT 10 19 12 21 4 23 21 25 18 27
REMARK Flexibility Score: inf
ROOT
ATOM      1  C   UNL     1      -9.332  -4.528   4.821  1.00  0.00     0.180 A 
ATOM      2  C   UNL     1      -8.496  -5.266   5.676  1.00  0.00     0.208 A 
ATOM      3  C   UNL     1      -8.037  -6.526   5.259  1.00  0.00     0.238 A 
ATOM      4  O   UNL     1      -7.245  -7.159   6.005  1.00  0.00    -0.285 OA
ATOM      5  C   UNL     1      -8.433  -7.038   4.000  1.00  0.00     0.111 A 
ATOM      6  C   UNL     1      -8.061  -8.320   3.493  1.00  0.00     0.134 A 
ATOM      7  C   UNL     1      -8.403  -8.669   2.181  1.00  0.00     0.093 A 
ATOM      8  C   UNL     1      -9.160  -7.810   1.380  1.00  0.00     0.123 A 
ATOM      9  C   UNL     1      -9.578  -6.581   1.887  1.00  0.00     0.094 A 
ATOM     10  C   UNL     1      -9.221  -6.190   3.180  1.00  0.00     0.146 A 
ATOM     11  O   UNL     1      -9.632  -5.007   3.620  1.00  0.00    -0.452 OA
ENDROOT
BRANCH   1  12
ATOM     12  C   UNL     1      -9.874  -3.204   5.202  1.00  0.00     0.025 A 
ATOM     13  C   UNL     1     -10.485  -2.402   4.227  1.00  0.00     0.016 A 
ATOM     14  C   UNL     1     -11.021  -1.159   4.570  1.00  0.00     0.051 A 
ATOM     15  C   UNL     1     -10.973  -0.699   5.890  1.00  0.00     0.157 A 
ATOM     16  C   UNL     1      -9.844  -2.756   6.534  1.00  0.00     0.062 A 
ATOM     17  C   UNL     1     -10.383  -1.512   6.887  1.00  0.00     0.158 A 
BRANCH  15  18
ATOM     18  O   UNL     1     -11.521   0.556   6.165  1.00  0.00    -0.504 OA
ATOM     19  H   UNL     1     -12.179   1.028   5.562  1.00  0.00     0.293 HD
ENDBRANCH  15  18
BRANCH  17  20
ATOM     20  O   UNL     1     -10.317  -1.130   8.228  1.00  0.00    -0.504 OA
ATOM     21  H   UNL     1      -9.454  -0.963   8.726  1.00  0.00     0.293 HD
ENDBRANCH  17  20
ENDBRANCH   1  12
BRANCH   2  22
ATOM     22  O   UNL     1      -8.099  -4.733   6.905  1.00  0.00    -0.502 OA
ATOM     23  H   UNL     1      -8.759  -4.346   7.570  1.00  0.00     0.293 HD
ENDBRANCH   2  22
BRANCH   6  24
ATOM     24  O   UNL     1      -7.385  -9.289   4.240  1.00  0.00    -0.507 OA
ATOM     25  H   UNL     1      -6.528  -9.129   4.747  1.00  0.00     0.293 HD
ENDBRANCH   6  24
BRANCH   8  26
ATOM     26  O   UNL     1      -9.509  -8.171   0.081  1.00  0.00    -0.508 OA
ATOM     27  H   UNL     1      -8.839  -8.130  -0.678  1.00  0.00     0.293 HD
ENDBRANCH   8  26
TORSDOF 6
ENDMDL
MODEL 3
REMARK VINA RESULT:    -6.644      1.409      6.681
REMARK INTER + INTRA:          -7.511
REMARK INTER:                  -7.298
REMARK INTRA:                  -0.213
REMARK UNBOUND:                 0.493
REMARK SMILES O=c1c(O)c(-c2ccc(O)c(O)c2)oc2cc(O)cc(O)c12
REMARK SMILES IDX 5 1 3 2 2 3 1 4 22 5 20 6 19 7 17 8 16 9 15 10 14 11 6 12
REMARK SMILES IDX 7 13 8 14 9 15 13 16 11 17 10 18 12 20 4 22 21 24 18 26
REMARK H PARENT 10 19 12 21 4 23 21 25 18 27
REMARK Flexibility Score: inf
ROOT
ATOM      1  C   UNL     1      -9.617  -7.115   2.423  1.00  0.00     0.180 A 
ATOM      2  C   UNL     1      -8.843  -8.073   3.099  1.00  0.00     0.208 A 
ATOM      3  C   UNL     1      -8.270  -7.735   4.336  1.00  0.00     0.238 A 
ATOM      4  O   UNL     1      -7.623  -8.615   4.963  1.00  0.00    -0.285 OA
ATOM      5  C   UNL     1      -8.463  -6.439   4.872  1.00  0.00     0.111 A 
ATOM      6  C   UNL     1      -7.897  -5.976   6.097  1.00  0.00     0.134 A 
ATOM      7  C   UNL     1      -8.262  -4.720   6.595  1.00  0.00     0.093 A 
ATOM      8  C   UNL     1      -9.123  -3.883   5.880  1.00  0.00     0.123 A 
ATOM      9  C   UNL     1      -9.635  -4.303   4.654  1.00  0.00     0.094 A 
ATOM     10  C   UNL     1      -9.317  -5.566   4.149  1.00  0.00     0.146 A 
ATOM     11  O   UNL     1      -9.835  -5.931   2.982  1.00  0.00    -0.452 OA
ENDROOT
BRANCH   1  12
ATOM     12  C   UNL     1     -10.232  -7.389   1.104  1.00  0.00     0.025 A 
ATOM     13  C   UNL     1     -11.327  -8.262   1.021  1.00  0.00     0.016 A 
ATOM     14  C   UNL     1     -11.934  -8.518  -0.209  1.00  0.00     0.051 A 
ATOM     15  C   UNL     1     -11.474  -7.898  -1.376  1.00  0.00     0.157 A 
ATOM     16  C   UNL     1      -9.782  -6.747  -0.062  1.00  0.00     0.062 A 
ATOM     17  C   UNL     1     -10.387  -6.995  -1.301  1.00  0.00     0.158 A 
BRANCH  15  18
ATOM     18  O   UNL     1     -12.122  -8.203  -2.576  1.00  0.00    -0.504 OA
ATOM     19  H   UNL     1     -13.076  -8.527  -2.635  1.00  0.00     0.293 HD
ENDBRANCH  15  18
BRANCH  17  20
ATOM     20  O   UNL     1      -9.887  -6.324  -2.417  1.00  0.00    -0.504 OA
ATOM     21  H   UNL     1      -8.924  -6.370  -2.720  1.00  0.00     0.293 HD
ENDBRANCH  17  20
ENDBRANCH   1  12
BRANCH   2  22
ATOM     22  O   UNL     1      -8.682  -9.353   2.563  1.00  0.00    -0.502 OA
ATOM     23  H   UNL     1      -7.782  -9.817   2.520  1.00  0.00     0.293 HD
ENDBRANCH   2  22
BRANCH   6  24
ATOM     24  O   UNL     1      -6.957  -6.693   6.843  1.00  0.00    -0.507 OA
ATOM     25  H   UNL     1      -6.123  -6.297   7.250  1.00  0.00     0.293 HD
ENDBRANCH   6  24
BRANCH   8  26
ATOM     26  O   UNL     1      -9.470  -2.628   6.375  1.00  0.00    -0.508 OA
ATOM     27  H   UNL     1      -8.978  -1.790   6.086  1.00  0.00     0.293 HD
ENDBRANCH   8  26
TORSDOF 6
ENDMDL
MODEL 4
REMARK VINA RESULT:    -6.563      1.793      6.854
REMARK INTER + INTRA:          -7.413
REMARK INTER:                  -7.583
REMARK INTRA:                   0.170
REMARK UNBOUND:                 0.493
REMARK SMILES O=c1c(O)c(-c2ccc(O)c(O)c2)oc2cc(O)cc(O)c12
REMARK SMILES IDX 5 1 3 2 2 3 1 4 22 5 20 6 19 7 17 8 16 9 15 10 14 11 6 12
REMARK SMILES IDX 7 13 8 14 9 15 13 16 11 17 10 18 12 20 4 22 21 24 18 26
REMARK H PARENT 10 19 12 21 4 23 21 25 18 27
REMARK Flexibility Score: inf
ROOT
ATOM      1  C   UNL     1      -9.978  -6.808   0.255  1.00  0.00     0.180 A 
ATOM      2  C   UNL     1      -9.707  -8.179   0.109  1.00  0.00     0.208 A 
ATOM      3  C   UNL     1      -9.166  -8.885   1.196  1.00  0.00     0.238 A 
ATOM      4  O   UNL     1      -8.977 -10.124   1.079  1.00  0.00    -0.285 OA
ATOM      5  C   UNL     1      -8.886  -8.208   2.407  1.00  0.00     0.111 A 
ATOM      6  C   UNL     1      -8.300  -8.815   3.558  1.00  0.00     0.134 A 
ATOM      7  C   UNL     1      -8.188  -8.080   4.745  1.00  0.00     0.093 A 
ATOM      8  C   UNL     1      -8.582  -6.741   4.803  1.00  0.00     0.123 A 
ATOM      9  C   UNL     1      -9.101  -6.122   3.668  1.00  0.00     0.094 A 
ATOM     10  C   UNL     1      -9.258  -6.841   2.480  1.00  0.00     0.146 A 
ATOM     11  O   UNL     1      -9.765  -6.215   1.424  1.00  0.00    -0.452 OA
ENDROOT
BRANCH   1  12
ATOM     12  C   UNL     1     -10.526  -5.992  -0.853  1.00  0.00     0.025 A 
ATOM     13  C   UNL     1     -11.389  -4.926  -0.563  1.00  0.00     0.016 A 
ATOM     14  C   UNL     1     -11.901  -4.133  -1.591  1.00  0.00     0.051 A 
ATOM     15  C   UNL     1     -11.550  -4.375  -2.924  1.00  0.00     0.157 A 
ATOM     16  C   UNL     1     -10.153  -6.225  -2.188  1.00  0.00     0.062 A 
ATOM     17  C   UNL     1     -10.658  -5.432  -3.226  1.00  0.00     0.158 A 
BRANCH  15  18
ATOM     18  O   UNL     1     -12.102  -3.549  -3.905  1.00  0.00    -0.504 OA
ATOM     19  H   UNL     1     -11.679  -2.689  -4.222  1.00  0.00     0.293 HD
ENDBRANCH  15  18
BRANCH  17  20
ATOM     20  O   UNL     1     -10.246  -5.721  -4.528  1.00  0.00    -0.504 OA
ATOM     21  H   UNL     1      -9.710  -5.089  -5.104  1.00  0.00     0.293 HD
ENDBRANCH  17  20
ENDBRANCH   1  12
BRANCH   2  22
ATOM     22  O   UNL     1     -10.012  -8.833  -1.087  1.00  0.00    -0.502 OA
ATOM     23  H   UNL     1      -9.421  -9.558  -1.477  1.00  0.00     0.293 HD
ENDBRANCH   2  22
BRANCH   6  24
ATOM     24  O   UNL     1      -7.789 -10.116   3.580  1.00  0.00    -0.507 OA
ATOM     25  H   UNL     1      -8.340 -10.951   3.452  1.00  0.00     0.293 HD
ENDBRANCH   6  24
BRANCH   8  26
ATOM     26  O   UNL     1      -8.454  -6.012   5.984  1.00  0.00    -0.508 OA
ATOM     27  H   UNL     1      -7.548  -5.836   6.402  1.00  0.00     0.293 HD
ENDBRANCH   8  26
TORSDOF 6
ENDMDL
MODEL 5
REMARK VINA RESULT:    -6.380      1.445      7.195
REMARK INTER + INTRA:          -7.192
REMARK INTER:                  -7.537
REMARK INTRA:                   0.345
REMARK UNBOUND:                 0.493
REMARK SMILES O=c1c(O)c(-c2ccc(O)c(O)c2)oc2cc(O)cc(O)c12
REMARK SMILES IDX 5 1 3 2 2 3 1 4 22 5 20 6 19 7 17 8 16 9 15 10 14 11 6 12
REMARK SMILES IDX 7 13 8 14 9 15 13 16 11 17 10 18 12 20 4 22 21 24 18 26
REMARK H PARENT 10 19 12 21 4 23 21 25 18 27
REMARK Flexibility Score: inf
ROOT
ATOM      1  C   UNL     1      -9.374  -6.591   2.895  1.00  0.00     0.180 A 
ATOM      2  C   UNL     1      -9.923  -5.299   2.948  1.00  0.00     0.208 A 
ATOM      3  C   UNL     1      -9.718  -4.519   4.098  1.00  0.00     0.238 A 
ATOM      4  O   UNL     1     -10.165  -3.343   4.119  1.00  0.00    -0.285 OA
ATOM      5  C   UNL     1      -8.983  -5.049   5.186  1.00  0.00     0.111 A 
ATOM      6  C   UNL     1      -8.748  -4.363   6.415  1.00  0.00     0.134 A 
ATOM      7  C   UNL     1      -7.897  -4.930   7.371  1.00  0.00     0.093 A 
ATOM      8  C   UNL     1      -7.323  -6.188   7.169  1.00  0.00     0.123 A 
ATOM      9  C   UNL     1      -7.593  -6.891   5.997  1.00  0.00     0.094 A 
ATOM     10  C   UNL     1      -8.410  -6.334   5.009  1.00  0.00     0.146 A 
ATOM     11  O   UNL     1      -8.634  -7.035   3.903  1.00  0.00    -0.452 OA
ENDROOT
BRANCH   1  12
ATOM     12  C   UNL     1      -9.568  -7.481   1.727  1.00  0.00     0.025 A 
ATOM     13  C   UNL     1      -9.538  -8.871   1.905  1.00  0.00     0.016 A 
ATOM     14  C   UNL     1      -9.738  -9.727   0.821  1.00  0.00     0.051 A 
ATOM     15  C   UNL     1      -9.989  -9.215  -0.457  1.00  0.00     0.157 A 
ATOM     16  C   UNL     1      -9.841  -6.962   0.449  1.00  0.00     0.062 A 
ATOM     17  C   UNL     1     -10.047  -7.813  -0.645  1.00  0.00     0.158 A 
BRANCH  15  18
ATOM     18  O   UNL     1     -10.174 -10.125  -1.501  1.00  0.00    -0.504 OA
ATOM     19  H   UNL     1     -10.392 -11.101  -1.366  1.00  0.00     0.293 HD
ENDBRANCH  15  18
BRANCH  17  20
ATOM     20  O   UNL     1     -10.312  -7.230  -1.884  1.00  0.00    -0.504 OA
ATOM     21  H   UNL     1     -11.239  -6.996  -2.213  1.00  0.00     0.293 HD
ENDBRANCH  17  20
ENDBRANCH   1  12
BRANCH   2  22
ATOM     22  O   UNL     1     -10.628  -4.788   1.855  1.00  0.00    -0.502 OA
ATOM     23  H   UNL     1     -10.739  -5.303   0.990  1.00  0.00     0.293 HD
ENDBRANCH   2  22
BRANCH   6  24
ATOM     24  O   UNL     1      -9.344  -3.145   6.756  1.00  0.00    -0.507 OA
ATOM     25  H   UNL     1      -9.980  -2.631   6.165  1.00  0.00     0.293 HD
ENDBRANCH   6  24
BRANCH   8  26
ATOM     26  O   UNL     1      -6.488  -6.752   8.131  1.00  0.00    -0.508 OA
ATOM     27  H   UNL     1      -6.739  -6.757   9.113  1.00  0.00     0.293 HD
ENDBRANCH   8  26
TORSDOF 6
ENDMDL
MODEL 6
REMARK VINA RESULT:    -6.298      2.205      3.774
REMARK INTER + INTRA:          -7.094
REMARK INTER:                  -7.287
REMARK INTRA:                   0.194
REMARK UNBOUND:                 0.493
REMARK SMILES O=c1c(O)c(-c2ccc(O)c(O)c2)oc2cc(O)cc(O)c12
REMARK SMILES IDX 5 1 3 2 2 3 1 4 22 5 20 6 19 7 17 8 16 9 15 10 14 11 6 12
REMARK SMILES IDX 7 13 8 14 9 15 13 16 11 17 10 18 12 20 4 22 21 24 18 26
REMARK H PARENT 10 19 12 21 4 23 21 25 18 27
REMARK Flexibility Score: inf
ROOT
ATOM      1  C   UNL     1      -9.990  -7.604   0.339  1.00  0.00     0.180 A 
ATOM      2  C   UNL     1     -10.247  -8.759  -0.419  1.00  0.00     0.208 A 
ATOM      3  C   UNL     1     -10.755  -8.620  -1.721  1.00  0.00     0.238 A 
ATOM      4  O   UNL     1     -10.932  -9.655  -2.414  1.00  0.00    -0.285 OA
ATOM      5  C   UNL     1     -11.016  -7.329  -2.240  1.00  0.00     0.111 A 
ATOM      6  C   UNL     1     -11.569  -7.073  -3.531  1.00  0.00     0.134 A 
ATOM      7  C   UNL     1     -11.663  -5.754  -3.992  1.00  0.00     0.093 A 
ATOM      8  C   UNL     1     -11.284  -4.679  -3.183  1.00  0.00     0.123 A 
ATOM      9  C   UNL     1     -10.798  -4.917  -1.900  1.00  0.00     0.094 A 
ATOM     10  C   UNL     1     -10.659  -6.224  -1.426  1.00  0.00     0.146 A 
ATOM     11  O   UNL     1     -10.183  -6.406  -0.200  1.00  0.00    -0.452 OA
ENDROOT
BRANCH   1  12
ATOM     12  C   UNL     1      -9.476  -7.671   1.726  1.00  0.00     0.025 A 
ATOM     13  C   UNL     1      -8.487  -8.611   2.052  1.00  0.00     0.016 A 
ATOM     14  C   UNL     1      -7.976  -8.677   3.349  1.00  0.00     0.051 A 
ATOM     15  C   UNL     1      -8.427  -7.799   4.341  1.00  0.00     0.157 A 
ATOM     16  C   UNL     1      -9.916  -6.773   2.714  1.00  0.00     0.062 A 
ATOM     17  C   UNL     1      -9.406  -6.830   4.018  1.00  0.00     0.158 A 
BRANCH  15  18
ATOM     18  O   UNL     1      -7.879  -7.923   5.620  1.00  0.00    -0.504 OA
ATOM     19  H   UNL     1      -7.248  -8.661   5.895  1.00  0.00     0.293 HD
ENDBRANCH  15  18
BRANCH  17  20
ATOM     20  O   UNL     1      -9.889  -5.908   4.948  1.00  0.00    -0.504 OA
ATOM     21  H   UNL     1     -10.864  -5.666   5.048  1.00  0.00     0.293 HD
ENDBRANCH  17  20
ENDBRANCH   1  12
BRANCH   2  22
ATOM     22  O   UNL     1      -9.961 -10.023   0.106  1.00  0.00    -0.502 OA
ATOM     23  H   UNL     1      -9.401 -10.152   0.940  1.00  0.00     0.293 HD
ENDBRANCH   2  22
BRANCH   6  24
ATOM     24  O   UNL     1     -12.063  -8.067  -4.380  1.00  0.00    -0.507 OA
ATOM     25  H   UNL     1     -12.421  -8.959  -4.074  1.00  0.00     0.293 HD
ENDBRANCH   6  24
BRANCH   8  26
ATOM     26  O   UNL     1     -11.394  -3.369  -3.644  1.00  0.00    -0.508 OA
ATOM     27  H   UNL     1     -11.269  -2.577  -3.024  1.00  0.00     0.293 HD
ENDBRANCH   8  26
TORSDOF 6
ENDMDL
MODEL 7
REMARK VINA RESULT:    -6.270      2.961      5.488
REMARK INTER + INTRA:          -7.061
REMARK INTER:                  -6.739
REMARK INTRA:                  -0.321
REMARK UNBOUND:                 0.493
REMARK SMILES O=c1c(O)c(-c2ccc(O)c(O)c2)oc2cc(O)cc(O)c12
REMARK SMILES IDX 5 1 3 2 2 3 1 4 22 5 20 6 19 7 17 8 16 9 15 10 14 11 6 12
REMARK SMILES IDX 7 13 8 14 9 15 13 16 11 17 10 18 12 20 4 22 21 24 18 26
REMARK H PARENT 10 19 12 21 4 23 21 25 18 27
REMARK Flexibility Score: inf
ROOT
ATOM      1  C   UNL     1     -10.424  -7.149  -0.655  1.00  0.00     0.180 A 
ATOM      2  C   UNL     1     -11.012  -5.919  -0.995  1.00  0.00     0.208 A 
ATOM      3  C   UNL     1     -11.370  -5.681  -2.332  1.00  0.00     0.238 A 
ATOM      4  O   UNL     1     -11.946  -4.600  -2.621  1.00  0.00    -0.285 OA
ATOM      5  C   UNL     1     -11.118  -6.670  -3.314  1.00  0.00     0.111 A 
ATOM      6  C   UNL     1     -11.403  -6.520  -4.705  1.00  0.00     0.134 A 
ATOM      7  C   UNL     1     -11.234  -7.611  -5.565  1.00  0.00     0.093 A 
ATOM      8  C   UNL     1     -10.730  -8.828  -5.097  1.00  0.00     0.123 A 
ATOM      9  C   UNL     1     -10.394  -8.965  -3.752  1.00  0.00     0.094 A 
ATOM     10  C   UNL     1     -10.586  -7.904  -2.862  1.00  0.00     0.146 A 
ATOM     11  O   UNL     1     -10.261  -8.081  -1.587  1.00  0.00    -0.452 OA
ENDROOT
BRANCH   1  12
ATOM     12  C   UNL     1      -9.998  -7.462   0.728  1.00  0.00     0.025 A 
ATOM     13  C   UNL     1      -8.729  -7.060   1.168  1.00  0.00     0.016 A 
ATOM     14  C   UNL     1      -8.316  -7.328   2.474  1.00  0.00     0.051 A 
ATOM     15  C   UNL     1      -9.165  -7.985   3.371  1.00  0.00     0.157 A 
ATOM     16  C   UNL     1     -10.862  -8.103   1.633  1.00  0.00     0.062 A 
ATOM     17  C   UNL     1     -10.458  -8.373   2.947  1.00  0.00     0.158 A 
BRANCH  15  18
ATOM     18  O   UNL     1      -8.689  -8.229   4.661  1.00  0.00    -0.504 OA
ATOM     19  H   UNL     1      -8.805  -7.591   5.435  1.00  0.00     0.293 HD
ENDBRANCH  15  18
BRANCH  17  20
ATOM     20  O   UNL     1     -11.367  -9.014   3.790  1.00  0.00    -0.504 OA
ATOM     21  H   UNL     1     -11.377 -10.011   3.955  1.00  0.00     0.293 HD
ENDBRANCH  17  20
ENDBRANCH   1  12
BRANCH   2  22
ATOM     22  O   UNL     1     -11.271  -4.966  -0.006  1.00  0.00    -0.502 OA
ATOM     23  H   UNL     1     -11.364  -5.209   0.973  1.00  0.00     0.293 HD
ENDBRANCH   2  22
BRANCH   6  24
ATOM     24  O   UNL     1     -11.823  -5.323  -5.292  1.00  0.00    -0.507 OA
ATOM     25  H   UNL     1     -11.574  -4.403  -4.961  1.00  0.00     0.293 HD
ENDBRANCH   6  24
BRANCH   8  26
ATOM     26  O   UNL     1     -10.551  -9.904  -5.962  1.00  0.00    -0.508 OA
ATOM     27  H   UNL     1     -11.329 -10.484  -6.254  1.00  0.00     0.293 HD
ENDBRANCH   8  26
TORSDOF 6
ENDMDL
MODEL 8
REMARK VINA RESULT:    -6.210      1.225      1.914
REMARK INTER + INTRA:          -6.989
REMARK INTER:                  -7.418
REMARK INTRA:                   0.429
REMARK UNBOUND:                 0.493
REMARK SMILES O=c1c(O)c(-c2ccc(O)c(O)c2)oc2cc(O)cc(O)c12
REMARK SMILES IDX 5 1 3 2 2 3 1 4 22 5 20 6 19 7 17 8 16 9 15 10 14 11 6 12
REMARK SMILES IDX 7 13 8 14 9 15 13 16 11 17 10 18 12 20 4 22 21 24 18 26
REMARK H PARENT 10 19 12 21 4 23 21 25 18 27
REMARK Flexibility Score: inf
ROOT
ATOM      1  C   UNL     1      -9.415  -6.665   2.383  1.00  0.00     0.180 A 
ATOM      2  C   UNL     1      -9.119  -7.996   2.044  1.00  0.00     0.208 A 
ATOM      3  C   UNL     1      -9.537  -8.489   0.797  1.00  0.00     0.238 A 
ATOM      4  O   UNL     1      -9.223  -9.665   0.476  1.00  0.00    -0.285 OA
ATOM      5  C   UNL     1     -10.259  -7.651  -0.086  1.00  0.00     0.111 A 
ATOM      6  C   UNL     1     -10.766  -8.058  -1.357  1.00  0.00     0.134 A 
ATOM      7  C   UNL     1     -11.352  -7.109  -2.203  1.00  0.00     0.093 A 
ATOM      8  C   UNL     1     -11.507  -5.780  -1.798  1.00  0.00     0.123 A 
ATOM      9  C   UNL     1     -11.069  -5.386  -0.536  1.00  0.00     0.094 A 
ATOM     10  C   UNL     1     -10.447  -6.304   0.316  1.00  0.00     0.146 A 
ATOM     11  O   UNL     1     -10.036  -5.884   1.507  1.00  0.00    -0.452 OA
ENDROOT
BRANCH   1  12
ATOM     12  C   UNL     1      -9.029  -6.081   3.688  1.00  0.00     0.025 A 
ATOM     13  C   UNL     1      -9.659  -4.911   4.135  1.00  0.00     0.016 A 
ATOM     14  C   UNL     1      -9.324  -4.356   5.371  1.00  0.00     0.051 A 
ATOM     15  C   UNL     1      -8.368  -4.964   6.192  1.00  0.00     0.157 A 
ATOM     16  C   UNL     1      -8.084  -6.707   4.520  1.00  0.00     0.062 A 
ATOM     17  C   UNL     1      -7.744  -6.160   5.763  1.00  0.00     0.158 A 
BRANCH  15  18
ATOM     18  O   UNL     1      -8.074  -4.354   7.414  1.00  0.00    -0.504 OA
ATOM     19  H   UNL     1      -8.686  -3.701   7.880  1.00  0.00     0.293 HD
ENDBRANCH  15  18
BRANCH  17  20
ATOM     20  O   UNL     1      -6.797  -6.834   6.536  1.00  0.00    -0.504 OA
ATOM     21  H   UNL     1      -5.957  -6.407   6.899  1.00  0.00     0.293 HD
ENDBRANCH  17  20
ENDBRANCH   1  12
BRANCH   2  22
ATOM     22  O   UNL     1      -8.387  -8.799   2.921  1.00  0.00    -0.502 OA
ATOM     23  H   UNL     1      -8.619  -8.885   3.904  1.00  0.00     0.293 HD
ENDBRANCH   2  22
BRANCH   6  24
ATOM     24  O   UNL     1     -10.745  -9.377  -1.820  1.00  0.00    -0.507 OA
ATOM     25  H   UNL     1     -10.090  -9.738  -2.497  1.00  0.00     0.293 HD
ENDBRANCH   6  24
BRANCH   8  26
ATOM     26  O   UNL     1     -12.104  -4.845  -2.640  1.00  0.00    -0.508 OA
ATOM     27  H   UNL     1     -11.626  -3.993  -2.909  1.00  0.00     0.293 HD
ENDBRANCH   8  26
TORSDOF 6
ENDMDL
MODEL 9
REMARK VINA RESULT:    -6.147      3.156      8.859
REMARK INTER + INTRA:          -6.913
REMARK INTER:                  -6.863
REMARK INTRA:                  -0.050
REMARK UNBOUND:                 0.493
REMARK SMILES O=c1c(O)c(-c2ccc(O)c(O)c2)oc2cc(O)cc(O)c12
REMARK SMILES IDX 5 1 3 2 2 3 1 4 22 5 20 6 19 7 17 8 16 9 15 10 14 11 6 12
REMARK SMILES IDX 7 13 8 14 9 15 13 16 11 17 10 18 12 20 4 22 21 24 18 26
REMARK H PARENT 10 19 12 21 4 23 21 25 18 27
REMARK Flexibility Score: inf
ROOT
ATOM      1  C   UNL     1     -10.728  -7.149  -2.347  1.00  0.00     0.180 A 
ATOM      2  C   UNL     1     -11.018  -5.859  -1.870  1.00  0.00     0.208 A 
ATOM      3  C   UNL     1     -10.865  -5.591  -0.500  1.00  0.00     0.238 A 
ATOM      4  O   UNL     1     -11.074  -4.420  -0.086  1.00  0.00    -0.285 OA
ATOM      5  C   UNL     1     -10.442  -6.619   0.377  1.00  0.00     0.111 A 
ATOM      6  C   UNL     1     -10.292  -6.469   1.788  1.00  0.00     0.134 A 
ATOM      7  C   UNL     1      -9.742  -7.514   2.539  1.00  0.00     0.093 A 
ATOM      8  C   UNL     1      -9.396  -8.728   1.939  1.00  0.00     0.123 A 
ATOM      9  C   UNL     1      -9.592  -8.904   0.571  1.00  0.00     0.094 A 
ATOM     10  C   UNL     1     -10.106  -7.866  -0.210  1.00  0.00     0.146 A 
ATOM     11  O   UNL     1     -10.269  -8.073  -1.511  1.00  0.00    -0.452 OA
ENDROOT
BRANCH   1  12
ATOM     12  C   UNL     1     -10.887  -7.514  -3.773  1.00  0.00     0.025 A 
ATOM     13  C   UNL     1     -11.745  -8.567  -4.124  1.00  0.00     0.016 A 
ATOM     14  C   UNL     1     -11.925  -8.914  -5.464  1.00  0.00     0.051 A 
ATOM     15  C   UNL     1     -11.268  -8.210  -6.480  1.00  0.00     0.157 A 
ATOM     16  C   UNL     1     -10.243  -6.790  -4.791  1.00  0.00     0.062 A 
ATOM     17  C   UNL     1     -10.421  -7.129  -6.139  1.00  0.00     0.158 A 
BRANCH  15  18
ATOM     18  O   UNL     1     -11.486  -8.612  -7.799  1.00  0.00    -0.504 OA
ATOM     19  H   UNL     1     -10.985  -9.364  -8.250  1.00  0.00     0.293 HD
ENDBRANCH  15  18
BRANCH  17  20
ATOM     20  O   UNL     1      -9.749  -6.367  -7.097  1.00  0.00    -0.504 OA
ATOM     21  H   UNL     1      -8.786  -6.515  -7.361  1.00  0.00     0.293 HD
ENDBRANCH  17  20
ENDBRANCH   1  12
BRANCH   2  22
ATOM     22  O   UNL     1     -11.414  -4.854  -2.755  1.00  0.00    -0.502 OA
ATOM     23  H   UNL     1     -10.749  -4.293  -3.275  1.00  0.00     0.293 HD
ENDBRANCH   2  22
BRANCH   6  24
ATOM     24  O   UNL     1     -10.692  -5.334   2.500  1.00  0.00    -0.507 OA
ATOM     25  H   UNL     1     -10.228  -4.439   2.461  1.00  0.00     0.293 HD
ENDBRANCH   6  24
BRANCH   8  26
ATOM     26  O   UNL     1      -8.862  -9.769   2.695  1.00  0.00    -0.508 OA
ATOM     27  H   UNL     1      -8.566 -10.638   2.266  1.00  0.00     0.293 HD
ENDBRANCH   8  26
TORSDOF 6
ENDMDL
