MODEL 1
REMARK VINA RESULT:    15.443      0.000      0.000
REMARK INTER + INTRA:          29.252
REMARK INTER:                  29.888
REMARK INTRA:                  -0.636
REMARK UNBOUND:                -0.636
REMARK SMILES CCCCCCCCCCCCCCCCCC(=O)[O-]
REMARK SMILES IDX 10 1 11 2 12 3 13 4 14 5 15 6 16 7 17 8 18 9 19 10 20 11
REMARK SMILES IDX 9 12 8 13 7 14 6 15 5 16 4 17 3 18 2 19 1 20
REMARK H PARENT
REMARK Flexibility Score: inf
ROOT
ATOM      1  C   UNL     1      -5.894  11.060 -23.510  1.00  0.00     0.000 C 
ENDROOT
BRANCH   1   2
ATOM      2  C   UNL     1      -6.542  12.439 -23.736  1.00  0.00     0.000 C 
BRANCH   2   3
ATOM      3  C   UNL     1      -6.382  12.935 -25.182  1.00  0.00     0.000 C 
BRANCH   3   4
ATOM      4  C   UNL     1      -5.481  14.180 -25.283  1.00  0.00     0.000 C 
BRANCH   4   5
ATOM      5  C   UNL     1      -5.097  14.515 -26.734  1.00  0.00     0.000 C 
BRANCH   5   6
ATOM      6  C   UNL     1      -5.146  16.022 -27.028  1.00  0.00     0.000 C 
BRANCH   6   7
ATOM      7  C   UNL     1      -4.704  16.834 -25.805  1.00  0.00     0.006 C 
BRANCH   7   8
ATOM      8  C   UNL     1      -5.598  18.062 -25.607  1.00  0.00     0.053 C 
BRANCH   8   9
ATOM      9  C   UNL     1      -5.657  18.438 -24.161  1.00  0.00     0.041 C 
ATOM     10  O   UNL     1      -5.013  17.776 -23.306  1.00  0.00    -0.550 OA
ATOM     11  O   UNL     1      -6.386  19.552 -23.761  1.00  0.00    -0.550 OA
ENDBRANCH   8   9
ENDBRANCH   7   8
ENDBRANCH   6   7
ENDBRANCH   5   6
ENDBRANCH   4   5
ENDBRANCH   3   4
ENDBRANCH   2   3
ENDBRANCH   1   2
BRANCH   1  12
ATOM     12  C   UNL     1      -5.634  10.309 -24.825  1.00  0.00     0.000 C 
BRANCH  12  13
ATOM     13  C   UNL     1      -4.954   8.948 -24.610  1.00  0.00    -0.000 C 
BRANCH  13  14
ATOM     14  C   UNL     1      -3.453   9.029 -24.912  1.00  0.00    -0.000 C 
BRANCH  14  15
ATOM     15  C   UNL     1      -2.638   8.254 -23.865  1.00  0.00    -0.000 C 
BRANCH  15  16
ATOM     16  C   UNL     1      -1.167   8.697 -23.809  1.00  0.00    -0.000 C 
BRANCH  16  17
ATOM     17  C   UNL     1      -0.820   9.726 -24.898  1.00  0.00    -0.000 C 
BRANCH  17  18
ATOM     18  C   UNL     1      -0.385   9.072 -26.223  1.00  0.00    -0.000 C 
BRANCH  18  19
ATOM     19  C   UNL     1       0.988   8.377 -26.185  1.00  0.00    -0.003 C 
ATOM     20  C   UNL     1       0.920   6.942 -25.665  1.00  0.00     0.004 C 
ENDBRANCH  18  19
ENDBRANCH  17  18
ENDBRANCH  16  17
ENDBRANCH  15  16
ENDBRANCH  14  15
ENDBRANCH  13  14
ENDBRANCH  12  13
ENDBRANCH   1  12
TORSDOF 16
ENDMDL
MODEL 2
REMARK VINA RESULT:    16.365      1.586      2.785
REMARK INTER + INTRA:          31.037
REMARK INTER:                  32.007
REMARK INTRA:                  -0.970
REMARK UNBOUND:                -0.636
REMARK SMILES CCCCCCCCCCCCCCCCCC(=O)[O-]
REMARK SMILES IDX 10 1 11 2 12 3 13 4 14 5 15 6 16 7 17 8 18 9 19 10 20 11
REMARK SMILES IDX 9 12 8 13 7 14 6 15 5 16 4 17 3 18 2 19 1 20
REMARK H PARENT
REMARK Flexibility Score: inf
ROOT
ATOM      1  C   UNL     1      -5.703  10.790 -23.883  1.00  0.00     0.000 C 
ENDROOT
BRANCH   1   2
ATOM      2  C   UNL     1      -6.373  12.172 -23.770  1.00  0.00     0.000 C 
BRANCH   2   3
ATOM      3  C   UNL     1      -6.403  12.923 -25.112  1.00  0.00     0.000 C 
BRANCH   3   4
ATOM      4  C   UNL     1      -5.357  14.051 -25.181  1.00  0.00     0.000 C 
BRANCH   4   5
ATOM      5  C   UNL     1      -5.109  14.539 -26.617  1.00  0.00     0.000 C 
BRANCH   5   6
ATOM      6  C   UNL     1      -5.285  16.057 -26.769  1.00  0.00     0.000 C 
BRANCH   6   7
ATOM      7  C   UNL     1      -4.660  16.803 -25.583  1.00  0.00     0.006 C 
BRANCH   7   8
ATOM      8  C   UNL     1      -5.360  18.144 -25.346  1.00  0.00     0.053 C 
BRANCH   8   9
ATOM      9  C   UNL     1      -5.690  18.313 -23.897  1.00  0.00     0.041 C 
ATOM     10  O   UNL     1      -4.920  17.854 -23.013  1.00  0.00    -0.550 OA
ATOM     11  O   UNL     1      -6.825  19.020 -23.520  1.00  0.00    -0.550 OA
ENDBRANCH   8   9
ENDBRANCH   7   8
ENDBRANCH   6   7
ENDBRANCH   5   6
ENDBRANCH   4   5
ENDBRANCH   3   4
ENDBRANCH   2   3
ENDBRANCH   1   2
BRANCH   1  12
ATOM     12  C   UNL     1      -5.920  10.141 -25.259  1.00  0.00     0.000 C 
BRANCH  12  13
ATOM     13  C   UNL     1      -4.797   9.165 -25.641  1.00  0.00    -0.000 C 
BRANCH  13  14
ATOM     14  C   UNL     1      -3.890   8.873 -24.439  1.00  0.00    -0.000 C 
BRANCH  14  15
ATOM     15  C   UNL     1      -2.414   9.113 -24.793  1.00  0.00    -0.000 C 
BRANCH  15  16
ATOM     16  C   UNL     1      -1.453   8.630 -23.694  1.00  0.00    -0.000 C 
BRANCH  16  17
ATOM     17  C   UNL     1      -2.050   7.495 -22.846  1.00  0.00    -0.000 C 
BRANCH  17  18
ATOM     18  C   UNL     1      -2.019   7.796 -21.336  1.00  0.00    -0.000 C 
BRANCH  18  19
ATOM     19  C   UNL     1      -3.122   7.107 -20.512  1.00  0.00    -0.003 C 
ATOM     20  C   UNL     1      -3.115   7.515 -19.040  1.00  0.00     0.004 C 
ENDBRANCH  18  19
ENDBRANCH  17  18
ENDBRANCH  16  17
ENDBRANCH  15  16
ENDBRANCH  14  15
ENDBRANCH  13  14
ENDBRANCH  12  13
ENDBRANCH   1  12
TORSDOF 16
ENDMDL
MODEL 3
REMARK VINA RESULT:    16.746      3.828      8.840
REMARK INTER + INTRA:          31.774
REMARK INTER:                  32.707
REMARK INTRA:                  -0.932
REMARK UNBOUND:                -0.636
REMARK SMILES CCCCCCCCCCCCCCCCCC(=O)[O-]
REMARK SMILES IDX 10 1 11 2 12 3 13 4 14 5 15 6 16 7 17 8 18 9 19 10 20 11
REMARK SMILES IDX 9 12 8 13 7 14 6 15 5 16 4 17 3 18 2 19 1 20
REMARK H PARENT
REMARK Flexibility Score: inf
ROOT
ATOM      1  C   UNL     1      -6.501  12.491 -23.870  1.00  0.00     0.000 C 
ENDROOT
BRANCH   1   2
ATOM      2  C   UNL     1      -6.112  11.022 -23.624  1.00  0.00     0.000 C 
BRANCH   2   3
ATOM      3  C   UNL     1      -5.526  10.350 -24.877  1.00  0.00     0.000 C 
BRANCH   3   4
ATOM      4  C   UNL     1      -4.789   9.038 -24.553  1.00  0.00     0.000 C 
BRANCH   4   5
ATOM      5  C   UNL     1      -3.306   9.078 -24.960  1.00  0.00     0.000 C 
BRANCH   5   6
ATOM      6  C   UNL     1      -2.367   8.647 -23.824  1.00  0.00     0.000 C 
BRANCH   6   7
ATOM      7  C   UNL     1      -0.899   8.861 -24.214  1.00  0.00     0.006 C 
BRANCH   7   8
ATOM      8  C   UNL     1      -0.786   9.510 -25.597  1.00  0.00     0.053 C 
BRANCH   8   9
ATOM      9  C   UNL     1       0.361   8.925 -26.357  1.00  0.00     0.041 C 
ATOM     10  O   UNL     1       1.048   9.649 -27.125  1.00  0.00    -0.550 OA
ATOM     11  O   UNL     1       0.704   7.590 -26.181  1.00  0.00    -0.550 OA
ENDBRANCH   8   9
ENDBRANCH   7   8
ENDBRANCH   6   7
ENDBRANCH   5   6
ENDBRANCH   4   5
ENDBRANCH   3   4
ENDBRANCH   2   3
ENDBRANCH   1   2
BRANCH   1  12
ATOM     12  C   UNL     1      -6.221  12.942 -25.312  1.00  0.00     0.000 C 
BRANCH  12  13
ATOM     13  C   UNL     1      -5.547  14.321 -25.385  1.00  0.00    -0.000 C 
BRANCH  13  14
ATOM     14  C   UNL     1      -4.948  14.568 -26.775  1.00  0.00    -0.000 C 
BRANCH  14  15
ATOM     15  C   UNL     1      -4.685  16.064 -27.003  1.00  0.00    -0.000 C 
BRANCH  15  16
ATOM     16  C   UNL     1      -5.885  16.944 -26.614  1.00  0.00    -0.000 C 
BRANCH  16  17
ATOM     17  C   UNL     1      -5.505  18.051 -25.617  1.00  0.00    -0.000 C 
BRANCH  17  18
ATOM     18  C   UNL     1      -4.921  17.498 -24.302  1.00  0.00    -0.000 C 
BRANCH  18  19
ATOM     19  C   UNL     1      -5.545  18.077 -23.020  1.00  0.00    -0.003 C 
ATOM     20  C   UNL     1      -6.755  18.970 -23.291  1.00  0.00     0.004 C 
ENDBRANCH  18  19
ENDBRANCH  17  18
ENDBRANCH  16  17
ENDBRANCH  15  16
ENDBRANCH  14  15
ENDBRANCH  13  14
ENDBRANCH  12  13
ENDBRANCH   1  12
TORSDOF 16
ENDMDL
MODEL 4
REMARK VINA RESULT:    17.662      4.216      8.221
REMARK INTER + INTRA:          33.546
REMARK INTER:                  34.408
REMARK INTRA:                  -0.862
REMARK UNBOUND:                -0.636
REMARK SMILES CCCCCCCCCCCCCCCCCC(=O)[O-]
REMARK SMILES IDX 10 1 11 2 12 3 13 4 14 5 15 6 16 7 17 8 18 9 19 10 20 11
REMARK SMILES IDX 9 12 8 13 7 14 6 15 5 16 4 17 3 18 2 19 1 20
REMARK H PARENT
REMARK Flexibility Score: inf
ROOT
ATOM      1  C   UNL     1      -6.505  12.494 -22.974  1.00  0.00     0.000 C 
ENDROOT
BRANCH   1   2
ATOM      2  C   UNL     1      -6.656  11.827 -24.353  1.00  0.00     0.000 C 
BRANCH   2   3
ATOM      3  C   UNL     1      -6.569  12.838 -25.509  1.00  0.00     0.000 C 
BRANCH   3   4
ATOM      4  C   UNL     1      -5.641  14.024 -25.188  1.00  0.00     0.000 C 
BRANCH   4   5
ATOM      5  C   UNL     1      -4.913  14.557 -26.432  1.00  0.00     0.000 C 
BRANCH   5   6
ATOM      6  C   UNL     1      -5.434  15.930 -26.883  1.00  0.00     0.000 C 
BRANCH   6   7
ATOM      7  C   UNL     1      -4.741  17.060 -26.112  1.00  0.00     0.006 C 
BRANCH   7   8
ATOM      8  C   UNL     1      -5.743  18.147 -25.710  1.00  0.00     0.053 C 
BRANCH   8   9
ATOM      9  C   UNL     1      -5.648  18.429 -24.244  1.00  0.00     0.041 C 
ATOM     10  O   UNL     1      -4.896  17.734 -23.512  1.00  0.00    -0.550 OA
ATOM     11  O   UNL     1      -6.354  19.491 -23.693  1.00  0.00    -0.550 OA
ENDBRANCH   8   9
ENDBRANCH   7   8
ENDBRANCH   6   7
ENDBRANCH   5   6
ENDBRANCH   4   5
ENDBRANCH   3   4
ENDBRANCH   2   3
ENDBRANCH   1   2
BRANCH   1  12
ATOM     12  C   UNL     1      -7.831  12.552 -22.199  1.00  0.00     0.000 C 
BRANCH  12  13
ATOM     13  C   UNL     1      -7.973  13.828 -21.356  1.00  0.00    -0.000 C 
BRANCH  13  14
ATOM     14  C   UNL     1      -9.003  13.637 -20.236  1.00  0.00    -0.000 C 
BRANCH  14  15
ATOM     15  C   UNL     1      -8.363  13.853 -18.857  1.00  0.00    -0.000 C 
BRANCH  15  16
ATOM     16  C   UNL     1      -9.360  14.389 -17.817  1.00  0.00    -0.000 C 
BRANCH  16  17
ATOM     17  C   UNL     1      -9.139  15.878 -17.501  1.00  0.00    -0.000 C 
BRANCH  17  18
ATOM     18  C   UNL     1     -10.289  16.773 -18.001  1.00  0.00    -0.000 C 
BRANCH  18  19
ATOM     19  C   UNL     1     -10.073  18.283 -17.797  1.00  0.00    -0.003 C 
ATOM     20  C   UNL     1      -8.929  18.601 -16.835  1.00  0.00     0.004 C 
ENDBRANCH  18  19
ENDBRANCH  17  18
ENDBRANCH  16  17
ENDBRANCH  15  16
ENDBRANCH  14  15
ENDBRANCH  13  14
ENDBRANCH  12  13
ENDBRANCH   1  12
TORSDOF 16
ENDMDL
MODEL 5
REMARK VINA RESULT:    17.679      4.149      8.838
REMARK INTER + INTRA:          33.580
REMARK INTER:                  34.609
REMARK INTRA:                  -1.029
REMARK UNBOUND:                -0.636
REMARK SMILES CCCCCCCCCCCCCCCCCC(=O)[O-]
REMARK SMILES IDX 10 1 11 2 12 3 13 4 14 5 15 6 16 7 17 8 18 9 19 10 20 11
REMARK SMILES IDX 9 12 8 13 7 14 6 15 5 16 4 17 3 18 2 19 1 20
REMARK H PARENT
REMARK Flexibility Score: inf
ROOT
ATOM      1  C   UNL     1      -5.536  11.006 -23.910  1.00  0.00     0.000 C 
ENDROOT
BRANCH   1   2
ATOM      2  C   UNL     1      -5.865   9.931 -24.961  1.00  0.00     0.000 C 
BRANCH   2   3
ATOM      3  C   UNL     1      -4.604   9.290 -25.564  1.00  0.00     0.000 C 
BRANCH   3   4
ATOM      4  C   UNL     1      -3.671   8.700 -24.490  1.00  0.00     0.000 C 
BRANCH   4   5
ATOM      5  C   UNL     1      -2.291   9.378 -24.470  1.00  0.00     0.000 C 
BRANCH   5   6
ATOM      6  C   UNL     1      -1.282   8.644 -23.573  1.00  0.00     0.000 C 
BRANCH   6   7
ATOM      7  C   UNL     1      -1.996   7.677 -22.621  1.00  0.00     0.006 C 
BRANCH   7   8
ATOM      8  C   UNL     1      -1.544   7.894 -21.174  1.00  0.00     0.053 C 
BRANCH   8   9
ATOM      9  C   UNL     1      -2.627   7.498 -20.223  1.00  0.00     0.041 C 
ATOM     10  O   UNL     1      -3.641   6.877 -20.639  1.00  0.00    -0.550 OA
ATOM     11  O   UNL     1      -2.497   7.770 -18.867  1.00  0.00    -0.550 OA
ENDBRANCH   8   9
ENDBRANCH   7   8
ENDBRANCH   6   7
ENDBRANCH   5   6
ENDBRANCH   4   5
ENDBRANCH   3   4
ENDBRANCH   2   3
ENDBRANCH   1   2
BRANCH   1  12
ATOM     12  C   UNL     1      -6.633  12.076 -23.797  1.00  0.00     0.000 C 
BRANCH  12  13
ATOM     13  C   UNL     1      -6.132  13.483 -24.157  1.00  0.00    -0.000 C 
BRANCH  13  14
ATOM     14  C   UNL     1      -5.935  13.627 -25.671  1.00  0.00    -0.000 C 
BRANCH  14  15
ATOM     15  C   UNL     1      -4.827  14.643 -25.987  1.00  0.00    -0.000 C 
BRANCH  15  16
ATOM     16  C   UNL     1      -5.369  15.939 -26.611  1.00  0.00    -0.000 C 
BRANCH  16  17
ATOM     17  C   UNL     1      -4.762  17.200 -25.972  1.00  0.00    -0.000 C 
BRANCH  17  18
ATOM     18  C   UNL     1      -5.804  18.310 -25.733  1.00  0.00    -0.000 C 
BRANCH  18  19
ATOM     19  C   UNL     1      -6.009  18.702 -24.259  1.00  0.00    -0.003 C 
ATOM     20  C   UNL     1      -5.267  17.787 -23.286  1.00  0.00     0.004 C 
ENDBRANCH  18  19
ENDBRANCH  17  18
ENDBRANCH  16  17
ENDBRANCH  15  16
ENDBRANCH  14  15
ENDBRANCH  13  14
ENDBRANCH  12  13
ENDBRANCH   1  12
TORSDOF 16
ENDMDL
MODEL 6
REMARK VINA RESULT:    18.142      5.462     10.036
REMARK INTER + INTRA:          34.475
REMARK INTER:                  34.954
REMARK INTRA:                  -0.479
REMARK UNBOUND:                -0.636
REMARK SMILES CCCCCCCCCCCCCCCCCC(=O)[O-]
REMARK SMILES IDX 10 1 11 2 12 3 13 4 14 5 15 6 16 7 17 8 18 9 19 10 20 11
REMARK SMILES IDX 9 12 8 13 7 14 6 15 5 16 4 17 3 18 2 19 1 20
REMARK H PARENT
REMARK Flexibility Score: inf
ROOT
ATOM      1  C   UNL     1      -6.505  12.527 -23.165  1.00  0.00     0.000 C 
ENDROOT
BRANCH   1   2
ATOM      2  C   UNL     1      -6.274  11.614 -24.383  1.00  0.00     0.000 C 
BRANCH   2   3
ATOM      3  C   UNL     1      -5.413  10.386 -24.044  1.00  0.00     0.000 C 
BRANCH   3   4
ATOM      4  C   UNL     1      -5.353   9.370 -25.199  1.00  0.00     0.000 C 
BRANCH   4   5
ATOM      5  C   UNL     1      -3.945   8.783 -25.396  1.00  0.00     0.000 C 
BRANCH   5   6
ATOM      6  C   UNL     1      -3.018   9.048 -24.201  1.00  0.00     0.000 C 
BRANCH   6   7
ATOM      7  C   UNL     1      -1.603   8.524 -24.476  1.00  0.00     0.006 C 
BRANCH   7   8
ATOM      8  C   UNL     1      -0.778   9.552 -25.256  1.00  0.00     0.053 C 
BRANCH   8   9
ATOM      9  C   UNL     1       0.326   8.877 -26.006  1.00  0.00     0.041 C 
ATOM     10  O   UNL     1       0.727   7.736 -25.654  1.00  0.00    -0.550 OA
ATOM     11  O   UNL     1       0.881   9.485 -27.125  1.00  0.00    -0.550 OA
ENDBRANCH   8   9
ENDBRANCH   7   8
ENDBRANCH   6   7
ENDBRANCH   5   6
ENDBRANCH   4   5
ENDBRANCH   3   4
ENDBRANCH   2   3
ENDBRANCH   1   2
BRANCH   1  12
ATOM     12  C   UNL     1      -7.962  12.501 -22.677  1.00  0.00     0.000 C 
BRANCH  12  13
ATOM     13  C   UNL     1      -8.081  12.633 -21.151  1.00  0.00    -0.000 C 
BRANCH  13  14
ATOM     14  C   UNL     1      -8.754  13.955 -20.764  1.00  0.00    -0.000 C 
BRANCH  14  15
ATOM     15  C   UNL     1      -8.421  14.338 -19.314  1.00  0.00    -0.000 C 
BRANCH  15  16
ATOM     16  C   UNL     1      -9.235  13.535 -18.286  1.00  0.00    -0.000 C 
BRANCH  16  17
ATOM     17  C   UNL     1      -9.745  14.408 -17.126  1.00  0.00    -0.000 C 
BRANCH  17  18
ATOM     18  C   UNL     1      -9.242  15.862 -17.206  1.00  0.00    -0.000 C 
BRANCH  18  19
ATOM     19  C   UNL     1     -10.119  16.808 -18.045  1.00  0.00    -0.003 C 
ATOM     20  C   UNL     1      -9.983  18.273 -17.635  1.00  0.00     0.004 C 
ENDBRANCH  18  19
ENDBRANCH  17  18
ENDBRANCH  16  17
ENDBRANCH  15  16
ENDBRANCH  14  15
ENDBRANCH  13  14
ENDBRANCH  12  13
ENDBRANCH   1  12
TORSDOF 16
ENDMDL
