MODEL 1
REMARK VINA RESULT:    -7.534      0.000      0.000
REMARK INTER + INTRA:         -11.088
REMARK INTER:                  -9.957
REMARK INTRA:                  -1.132
REMARK UNBOUND:                -1.132
REMARK SMILES CC[C@H](C=C[C@H](C)[C@@H]1CC[C@@H]2[C@H]3CC=C4C[C@@H](O)CC[C@@]4(C)[C@@H]3CC[C@@]21C)C(C)C
REMARK SMILES IDX 6 1 7 2 5 3 4 4 3 5 2 6 1 7 28 8 29 9 30 10 8 11 9 12 26 13
REMARK SMILES IDX 10 14 11 15 25 16 27 17 12 18 24 19 23 20 13 21 21 22 14 23
REMARK SMILES IDX 15 24 20 25 22 26 16 27 19 28 17 29 18 30
REMARK H PARENT 18 31
REMARK Flexibility Score: inf
ROOT
ATOM      1  C   UNL     1      18.851 -13.793   8.589  1.00  0.00     0.012 C 
ATOM      2  C   UNL     1      20.136 -12.974   8.814  1.00  0.00     0.012 C 
ENDROOT
BRANCH   1   3
ATOM      3  C   UNL     1      18.510 -13.796   7.107  1.00  0.00    -0.028 C 
ATOM      4  C   UNL     1      19.373 -13.377   6.162  1.00  0.00    -0.027 C 
BRANCH   4   5
ATOM      5  C   UNL     1      19.057 -13.299   4.677  1.00  0.00     0.014 C 
BRANCH   5   6
ATOM      6  C   UNL     1      19.382 -11.931   4.007  1.00  0.00     0.004 C 
ATOM      7  C   UNL     1      20.440 -11.060   4.692  1.00  0.00     0.004 C 
ENDBRANCH   5   6
BRANCH   5   8
ATOM      8  C   UNL     1      19.479 -14.583   3.882  1.00  0.00    -0.011 C 
ATOM      9  C   UNL     1      18.721 -15.867   4.266  1.00  0.00     0.008 C 
ATOM     10  C   UNL     1      20.995 -14.835   3.996  1.00  0.00     0.008 C 
ENDBRANCH   5   8
ENDBRANCH   4   5
ENDBRANCH   1   3
BRANCH   1  11
ATOM     11  C   UNL     1      18.951 -15.253   9.163  1.00  0.00     0.002 C 
ATOM     12  C   UNL     1      18.382 -16.315   8.210  1.00  0.00     0.005 C 
ATOM     13  C   UNL     1      18.279 -15.561  10.542  1.00  0.00    -0.026 C 
ATOM     14  C   UNL     1      17.904 -17.477   9.077  1.00  0.00     0.005 C 
ATOM     15  C   UNL     1      18.252 -17.112  10.528  1.00  0.00    -0.001 C 
ATOM     16  C   UNL     1      16.824 -14.963  10.628  1.00  0.00     0.007 C 
ATOM     17  C   UNL     1      19.171 -15.060  11.716  1.00  0.00     0.012 C 
ATOM     18  C   UNL     1      17.312 -17.809  11.572  1.00  0.00     0.000 C 
ATOM     19  C   UNL     1      15.754 -15.862  11.280  1.00  0.00     0.005 C 
ATOM     20  C   UNL     1      16.351 -16.841  12.306  1.00  0.00     0.003 C 
ATOM     21  C   UNL     1      18.112 -18.615  12.605  1.00  0.00     0.031 C 
ATOM     22  C   UNL     1      15.300 -17.641  13.171  1.00  0.00    -0.008 C 
ATOM     23  C   UNL     1      17.268 -19.125  13.747  1.00  0.00    -0.027 C 
ATOM     24  C   UNL     1      16.051 -18.630  14.076  1.00  0.00    -0.065 C 
ATOM     25  C   UNL     1      14.521 -16.655  14.092  1.00  0.00     0.014 C 
ATOM     26  C   UNL     1      14.297 -18.423  12.273  1.00  0.00     0.016 C 
ATOM     27  C   UNL     1      15.518 -18.966  15.459  1.00  0.00     0.063 C 
ATOM     28  C   UNL     1      13.550 -17.331  15.084  1.00  0.00     0.033 C 
ATOM     29  C   UNL     1      14.009 -18.716  15.602  1.00  0.00     0.118 C 
BRANCH  29  30
ATOM     30  O   UNL     1      13.608 -18.902  16.938  1.00  0.00    -0.393 OA
ATOM     31  H   UNL     1      12.842 -18.294  17.113  1.00  0.00     0.210 HD
ENDBRANCH  29  30
ENDBRANCH   1  11
TORSDOF 6
ENDMDL
MODEL 2
REMARK VINA RESULT:    -7.503     16.482     18.719
REMARK INTER + INTRA:         -11.048
REMARK INTER:                  -9.932
REMARK INTRA:                  -1.115
REMARK UNBOUND:                -1.132
REMARK SMILES CC[C@H](C=C[C@H](C)[C@@H]1CC[C@@H]2[C@H]3CC=C4C[C@@H](O)CC[C@@]4(C)[C@@H]3CC[C@@]21C)C(C)C
REMARK SMILES IDX 6 1 7 2 5 3 4 4 3 5 2 6 1 7 28 8 29 9 30 10 8 11 9 12 26 13
REMARK SMILES IDX 10 14 11 15 25 16 27 17 12 18 24 19 23 20 13 21 21 22 14 23
REMARK SMILES IDX 15 24 20 25 22 26 16 27 19 28 17 29 18 30
REMARK H PARENT 18 31
REMARK Flexibility Score: inf
ROOT
ATOM      1  C   UNL     1      20.625  -4.423  19.124  1.00  0.00     0.012 C 
ATOM      2  C   UNL     1      21.439  -5.256  18.116  1.00  0.00     0.012 C 
ENDROOT
BRANCH   1   3
ATOM      3  C   UNL     1      21.578  -3.696  20.059  1.00  0.00    -0.028 C 
ATOM      4  C   UNL     1      21.221  -3.300  21.296  1.00  0.00    -0.027 C 
BRANCH   4   5
ATOM      5  C   UNL     1      22.116  -2.514  22.243  1.00  0.00     0.014 C 
BRANCH   5   6
ATOM      6  C   UNL     1      23.620  -2.473  21.841  1.00  0.00     0.004 C 
ATOM      7  C   UNL     1      24.389  -1.190  22.171  1.00  0.00     0.004 C 
ENDBRANCH   5   6
BRANCH   5   8
ATOM      8  C   UNL     1      21.483  -1.161  22.719  1.00  0.00    -0.011 C 
ATOM      9  C   UNL     1      20.347  -1.299  23.750  1.00  0.00     0.008 C 
ATOM     10  C   UNL     1      20.984  -0.328  21.522  1.00  0.00     0.008 C 
ENDBRANCH   5   8
ENDBRANCH   4   5
ENDBRANCH   1   3
BRANCH   1  11
ATOM     11  C   UNL     1      19.626  -3.430  18.427  1.00  0.00     0.002 C 
ATOM     12  C   UNL     1      20.239  -2.046  18.164  1.00  0.00     0.005 C 
ATOM     13  C   UNL     1      18.261  -3.128  19.129  1.00  0.00    -0.026 C 
ATOM     14  C   UNL     1      19.086  -1.044  18.163  1.00  0.00     0.005 C 
ATOM     15  C   UNL     1      17.800  -1.859  18.367  1.00  0.00    -0.001 C 
ATOM     16  C   UNL     1      18.447  -2.838  20.666  1.00  0.00     0.007 C 
ATOM     17  C   UNL     1      17.247  -4.285  18.887  1.00  0.00     0.012 C 
ATOM     18  C   UNL     1      16.649  -1.021  19.025  1.00  0.00     0.000 C 
ATOM     19  C   UNL     1      17.615  -1.678  21.248  1.00  0.00     0.005 C 
ATOM     20  C   UNL     1      16.304  -1.446  20.474  1.00  0.00     0.003 C 
ATOM     21  C   UNL     1      15.374  -1.041  18.171  1.00  0.00     0.031 C 
ATOM     22  C   UNL     1      15.299  -0.425  21.136  1.00  0.00    -0.008 C 
ATOM     23  C   UNL     1      14.181  -0.429  18.864  1.00  0.00    -0.027 C 
ATOM     24  C   UNL     1      14.091  -0.241  20.202  1.00  0.00    -0.065 C 
ATOM     25  C   UNL     1      14.771  -1.005  22.481  1.00  0.00     0.014 C 
ATOM     26  C   UNL     1      15.970   0.958  21.388  1.00  0.00     0.016 C 
ATOM     27  C   UNL     1      12.706   0.006  20.775  1.00  0.00     0.063 C 
ATOM     28  C   UNL     1      13.678  -0.156  23.165  1.00  0.00     0.033 C 
ATOM     29  C   UNL     1      12.734   0.594  22.194  1.00  0.00     0.118 C 
BRANCH  29  30
ATOM     30  O   UNL     1      11.432   0.659  22.722  1.00  0.00    -0.393 OA
ATOM     31  H   UNL     1      11.248  -0.201  23.185  1.00  0.00     0.210 HD
ENDBRANCH  29  30
ENDBRANCH   1  11
TORSDOF 6
ENDMDL
MODEL 3
REMARK VINA RESULT:    -6.874     15.635     17.956
REMARK INTER + INTRA:         -10.216
REMARK INTER:                 -10.195
REMARK INTRA:                  -0.022
REMARK UNBOUND:                -1.132
REMARK SMILES CC[C@H](C=C[C@H](C)[C@@H]1CC[C@@H]2[C@H]3CC=C4C[C@@H](O)CC[C@@]4(C)[C@@H]3CC[C@@]21C)C(C)C
REMARK SMILES IDX 6 1 7 2 5 3 4 4 3 5 2 6 1 7 28 8 29 9 30 10 8 11 9 12 26 13
REMARK SMILES IDX 10 14 11 15 25 16 27 17 12 18 24 19 23 20 13 21 21 22 14 23
REMARK SMILES IDX 15 24 20 25 22 26 16 27 19 28 17 29 18 30
REMARK H PARENT 18 31
REMARK Flexibility Score: inf
ROOT
ATOM      1  C   UNL     1      17.126  -2.968  17.483  1.00  0.00     0.012 C 
ATOM      2  C   UNL     1      18.367  -3.128  16.585  1.00  0.00     0.012 C 
ENDROOT
BRANCH   1   3
ATOM      3  C   UNL     1      16.085  -4.005  17.090  1.00  0.00    -0.028 C 
ATOM      4  C   UNL     1      16.397  -5.292  16.850  1.00  0.00    -0.027 C 
BRANCH   4   5
ATOM      5  C   UNL     1      15.404  -6.350  16.393  1.00  0.00     0.014 C 
BRANCH   5   6
ATOM      6  C   UNL     1      13.913  -6.034  16.716  1.00  0.00     0.004 C 
ATOM      7  C   UNL     1      13.519  -5.998  18.196  1.00  0.00     0.004 C 
ENDBRANCH   5   6
BRANCH   5   8
ATOM      8  C   UNL     1      15.705  -6.909  14.959  1.00  0.00    -0.011 C 
ATOM      9  C   UNL     1      14.674  -7.920  14.423  1.00  0.00     0.008 C 
ATOM     10  C   UNL     1      17.112  -7.534  14.889  1.00  0.00     0.008 C 
ENDBRANCH   5   8
ENDBRANCH   4   5
ENDBRANCH   1   3
BRANCH   1  11
ATOM     11  C   UNL     1      17.469  -3.041  19.015  1.00  0.00     0.002 C 
ATOM     12  C   UNL     1      16.543  -2.173  19.881  1.00  0.00     0.005 C 
ATOM     13  C   UNL     1      18.914  -2.658  19.477  1.00  0.00    -0.026 C 
ATOM     14  C   UNL     1      17.340  -1.780  21.123  1.00  0.00     0.005 C 
ATOM     15  C   UNL     1      18.706  -2.471  21.002  1.00  0.00    -0.001 C 
ATOM     16  C   UNL     1      19.408  -1.325  18.797  1.00  0.00     0.007 C 
ATOM     17  C   UNL     1      19.906  -3.830  19.220  1.00  0.00     0.012 C 
ATOM     18  C   UNL     1      19.840  -1.714  21.779  1.00  0.00     0.000 C 
ATOM     19  C   UNL     1      20.167  -0.337  19.706  1.00  0.00     0.005 C 
ATOM     20  C   UNL     1      20.893  -1.040  20.866  1.00  0.00     0.003 C 
ATOM     21  C   UNL     1      20.548  -2.633  22.783  1.00  0.00     0.031 C 
ATOM     22  C   UNL     1      21.866  -0.127  21.709  1.00  0.00    -0.008 C 
ATOM     23  C   UNL     1      21.779  -2.011  23.397  1.00  0.00    -0.027 C 
ATOM     24  C   UNL     1      22.440  -0.952  22.873  1.00  0.00    -0.065 C 
ATOM     25  C   UNL     1      23.061   0.329  20.819  1.00  0.00     0.014 C 
ATOM     26  C   UNL     1      21.130   1.123  22.277  1.00  0.00     0.016 C 
ATOM     27  C   UNL     1      23.853  -0.701  23.371  1.00  0.00     0.063 C 
ATOM     28  C   UNL     1      24.154   1.124  21.565  1.00  0.00     0.033 C 
ATOM     29  C   UNL     1      24.370   0.707  23.041  1.00  0.00     0.118 C 
BRANCH  29  30
ATOM     30  O   UNL     1      25.727   0.824  23.394  1.00  0.00    -0.393 OA
ATOM     31  H   UNL     1      26.241   0.172  22.849  1.00  0.00     0.210 HD
ENDBRANCH  29  30
ENDBRANCH   1  11
TORSDOF 6
ENDMDL
MODEL 4
REMARK VINA RESULT:    -6.859      3.735      7.701
REMARK INTER + INTRA:         -10.196
REMARK INTER:                  -9.156
REMARK INTRA:                  -1.040
REMARK UNBOUND:                -1.132
REMARK SMILES CC[C@H](C=C[C@H](C)[C@@H]1CC[C@@H]2[C@H]3CC=C4C[C@@H](O)CC[C@@]4(C)[C@@H]3CC[C@@]21C)C(C)C
REMARK SMILES IDX 6 1 7 2 5 3 4 4 3 5 2 6 1 7 28 8 29 9 30 10 8 11 9 12 26 13
REMARK SMILES IDX 10 14 11 15 25 16 27 17 12 18 24 19 23 20 13 21 21 22 14 23
REMARK SMILES IDX 15 24 20 25 22 26 16 27 19 28 17 29 18 30
REMARK H PARENT 18 31
REMARK Flexibility Score: inf
ROOT
ATOM      1  C   UNL     1      23.924 -10.634   4.976  1.00  0.00     0.012 C 
ATOM      2  C   UNL     1      25.001 -10.616   3.875  1.00  0.00     0.012 C 
ENDROOT
BRANCH   1   3
ATOM      3  C   UNL     1      23.506  -9.206   5.293  1.00  0.00    -0.028 C 
ATOM      4  C   UNL     1      24.125  -8.458   6.225  1.00  0.00    -0.027 C 
BRANCH   4   5
ATOM      5  C   UNL     1      23.704  -7.051   6.622  1.00  0.00     0.014 C 
BRANCH   5   6
ATOM      6  C   UNL     1      23.992  -6.674   8.106  1.00  0.00     0.004 C 
ATOM      7  C   UNL     1      23.343  -7.553   9.181  1.00  0.00     0.004 C 
ENDBRANCH   5   6
BRANCH   5   8
ATOM      8  C   UNL     1      24.058  -5.967   5.546  1.00  0.00    -0.011 C 
ATOM      9  C   UNL     1      24.591  -4.637   6.109  1.00  0.00     0.008 C 
ATOM     10  C   UNL     1      22.854  -5.682   4.626  1.00  0.00     0.008 C 
ENDBRANCH   5   8
ENDBRANCH   4   5
ENDBRANCH   1   3
BRANCH   1  11
ATOM     11  C   UNL     1      22.688 -11.531   4.605  1.00  0.00     0.002 C 
ATOM     12  C   UNL     1      21.438 -10.713   4.245  1.00  0.00     0.005 C 
ATOM     13  C   UNL     1      22.185 -12.579   5.652  1.00  0.00    -0.026 C 
ATOM     14  C   UNL     1      20.229 -11.581   4.586  1.00  0.00     0.005 C 
ATOM     15  C   UNL     1      20.782 -12.924   5.087  1.00  0.00    -0.001 C 
ATOM     16  C   UNL     1      22.085 -11.959   7.096  1.00  0.00     0.007 C 
ATOM     17  C   UNL     1      23.085 -13.850   5.639  1.00  0.00     0.012 C 
ATOM     18  C   UNL     1      19.795 -13.663   6.057  1.00  0.00     0.000 C 
ATOM     19  C   UNL     1      20.840 -12.345   7.921  1.00  0.00     0.005 C 
ATOM     20  C   UNL     1      20.277 -13.722   7.528  1.00  0.00     0.003 C 
ATOM     21  C   UNL     1      19.476 -15.082   5.567  1.00  0.00     0.031 C 
ATOM     22  C   UNL     1      19.140 -14.283   8.469  1.00  0.00    -0.008 C 
ATOM     23  C   UNL     1      18.704 -15.901   6.572  1.00  0.00    -0.027 C 
ATOM     24  C   UNL     1      18.628 -15.613   7.893  1.00  0.00    -0.065 C 
ATOM     25  C   UNL     1      19.727 -14.575   9.882  1.00  0.00     0.014 C 
ATOM     26  C   UNL     1      17.952 -13.284   8.591  1.00  0.00     0.016 C 
ATOM     27  C   UNL     1      18.162 -16.725   8.818  1.00  0.00     0.063 C 
ATOM     28  C   UNL     1      18.743 -15.251  10.862  1.00  0.00     0.033 C 
ATOM     29  C   UNL     1      17.728 -16.217  10.202  1.00  0.00     0.118 C 
BRANCH  29  30
ATOM     30  O   UNL     1      17.452 -17.301  11.055  1.00  0.00    -0.393 OA
ATOM     31  H   UNL     1      16.769 -17.005  11.713  1.00  0.00     0.210 HD
ENDBRANCH  29  30
ENDBRANCH   1  11
TORSDOF 6
ENDMDL
MODEL 5
REMARK VINA RESULT:    -6.735      2.253      4.657
REMARK INTER + INTRA:         -10.033
REMARK INTER:                  -9.788
REMARK INTRA:                  -0.244
REMARK UNBOUND:                -1.132
REMARK SMILES CC[C@H](C=C[C@H](C)[C@@H]1CC[C@@H]2[C@H]3CC=C4C[C@@H](O)CC[C@@]4(C)[C@@H]3CC[C@@]21C)C(C)C
REMARK SMILES IDX 6 1 7 2 5 3 4 4 3 5 2 6 1 7 28 8 29 9 30 10 8 11 9 12 26 13
REMARK SMILES IDX 10 14 11 15 25 16 27 17 12 18 24 19 23 20 13 21 21 22 14 23
REMARK SMILES IDX 15 24 20 25 22 26 16 27 19 28 17 29 18 30
REMARK H PARENT 18 31
REMARK Flexibility Score: inf
ROOT
ATOM      1  C   UNL     1      17.730 -18.525  10.537  1.00  0.00     0.012 C 
ATOM      2  C   UNL     1      17.879 -19.120   9.124  1.00  0.00     0.012 C 
ENDROOT
BRANCH   1   3
ATOM      3  C   UNL     1      17.684 -17.008  10.441  1.00  0.00    -0.028 C 
ATOM      4  C   UNL     1      18.294 -16.324   9.455  1.00  0.00    -0.027 C 
BRANCH   4   5
ATOM      5  C   UNL     1      18.332 -14.807   9.351  1.00  0.00     0.014 C 
BRANCH   5   6
ATOM      6  C   UNL     1      19.261 -14.101  10.384  1.00  0.00     0.004 C 
ATOM      7  C   UNL     1      18.647 -12.958  11.198  1.00  0.00     0.004 C 
ENDBRANCH   5   6
BRANCH   5   8
ATOM      8  C   UNL     1      18.406 -14.284   7.874  1.00  0.00    -0.011 C 
ATOM      9  C   UNL     1      17.143 -13.559   7.375  1.00  0.00     0.008 C 
ATOM     10  C   UNL     1      18.756 -15.424   6.898  1.00  0.00     0.008 C 
ENDBRANCH   5   8
ENDBRANCH   4   5
ENDBRANCH   1   3
BRANCH   1  11
ATOM     11  C   UNL     1      16.485 -19.094  11.309  1.00  0.00     0.002 C 
ATOM     12  C   UNL     1      15.209 -19.125  10.454  1.00  0.00     0.005 C 
ATOM     13  C   UNL     1      16.049 -18.398  12.641  1.00  0.00    -0.026 C 
ATOM     14  C   UNL     1      14.029 -19.010  11.416  1.00  0.00     0.005 C 
ATOM     15  C   UNL     1      14.622 -18.974  12.832  1.00  0.00    -0.001 C 
ATOM     16  C   UNL     1      16.021 -16.830  12.497  1.00  0.00     0.007 C 
ATOM     17  C   UNL     1      16.960 -18.845  13.822  1.00  0.00     0.012 C 
ATOM     18  C   UNL     1      13.696 -18.233  13.859  1.00  0.00     0.000 C 
ATOM     19  C   UNL     1      14.826 -16.106  13.151  1.00  0.00     0.005 C 
ATOM     20  C   UNL     1      14.257 -16.877  14.355  1.00  0.00     0.003 C 
ATOM     21  C   UNL     1      13.365 -19.120  15.067  1.00  0.00     0.031 C 
ATOM     22  C   UNL     1      13.178 -16.100  15.207  1.00  0.00    -0.008 C 
ATOM     23  C   UNL     1      12.657 -18.381  16.175  1.00  0.00    -0.027 C 
ATOM     24  C   UNL     1      12.650 -17.033  16.309  1.00  0.00    -0.065 C 
ATOM     25  C   UNL     1      13.843 -14.875  15.904  1.00  0.00     0.014 C 
ATOM     26  C   UNL     1      11.988 -15.619  14.325  1.00  0.00     0.016 C 
ATOM     27  C   UNL     1      12.245 -16.473  17.662  1.00  0.00     0.063 C 
ATOM     28  C   UNL     1      12.920 -14.106  16.873  1.00  0.00     0.033 C 
ATOM     29  C   UNL     1      11.881 -14.981  17.616  1.00  0.00     0.118 C 
BRANCH  29  30
ATOM     30  O   UNL     1      11.663 -14.492  18.916  1.00  0.00    -0.393 OA
ATOM     31  H   UNL     1      11.666 -13.499  18.873  1.00  0.00     0.210 HD
ENDBRANCH  29  30
ENDBRANCH   1  11
TORSDOF 6
ENDMDL
MODEL 6
REMARK VINA RESULT:    -6.280     15.290     17.599
REMARK INTER + INTRA:          -9.431
REMARK INTER:                  -9.418
REMARK INTRA:                  -0.013
REMARK UNBOUND:                -1.132
REMARK SMILES CC[C@H](C=C[C@H](C)[C@@H]1CC[C@@H]2[C@H]3CC=C4C[C@@H](O)CC[C@@]4(C)[C@@H]3CC[C@@]21C)C(C)C
REMARK SMILES IDX 6 1 7 2 5 3 4 4 3 5 2 6 1 7 28 8 29 9 30 10 8 11 9 12 26 13
REMARK SMILES IDX 10 14 11 15 25 16 27 17 12 18 24 19 23 20 13 21 21 22 14 23
REMARK SMILES IDX 15 24 20 25 22 26 16 27 19 28 17 29 18 30
REMARK H PARENT 18 31
REMARK Flexibility Score: inf
ROOT
ATOM      1  C   UNL     1      17.044  -4.503  18.018  1.00  0.00     0.012 C 
ATOM      2  C   UNL     1      15.956  -4.326  16.942  1.00  0.00     0.012 C 
ENDROOT
BRANCH   1   3
ATOM      3  C   UNL     1      18.389  -4.713  17.340  1.00  0.00    -0.028 C 
ATOM      4  C   UNL     1      19.032  -5.897  17.351  1.00  0.00    -0.027 C 
BRANCH   4   5
ATOM      5  C   UNL     1      20.405  -6.139  16.744  1.00  0.00     0.014 C 
BRANCH   5   6
ATOM      6  C   UNL     1      21.594  -5.538  17.552  1.00  0.00     0.004 C 
ATOM      7  C   UNL     1      22.477  -4.517  16.826  1.00  0.00     0.004 C 
ENDBRANCH   5   6
BRANCH   5   8
ATOM      8  C   UNL     1      20.598  -7.597  16.199  1.00  0.00    -0.011 C 
ATOM      9  C   UNL     1      21.998  -7.904  15.639  1.00  0.00     0.008 C 
ATOM     10  C   UNL     1      19.539  -7.936  15.132  1.00  0.00     0.008 C 
ENDBRANCH   5   8
ENDBRANCH   4   5
ENDBRANCH   1   3
BRANCH   1  11
ATOM     11  C   UNL     1      17.090  -3.311  19.040  1.00  0.00     0.002 C 
ATOM     12  C   UNL     1      16.917  -1.938  18.372  1.00  0.00     0.005 C 
ATOM     13  C   UNL     1      18.356  -3.151  19.946  1.00  0.00    -0.026 C 
ATOM     14  C   UNL     1      17.639  -0.923  19.254  1.00  0.00     0.005 C 
ATOM     15  C   UNL     1      18.178  -1.701  20.464  1.00  0.00    -0.001 C 
ATOM     16  C   UNL     1      19.687  -3.306  19.119  1.00  0.00     0.007 C 
ATOM     17  C   UNL     1      18.309  -4.148  21.142  1.00  0.00     0.012 C 
ATOM     18  C   UNL     1      19.438  -1.024  21.109  1.00  0.00     0.000 C 
ATOM     19  C   UNL     1      20.819  -2.313  19.455  1.00  0.00     0.005 C 
ATOM     20  C   UNL     1      20.754  -1.816  20.910  1.00  0.00     0.003 C 
ATOM     21  C   UNL     1      19.230  -0.748  22.604  1.00  0.00     0.031 C 
ATOM     22  C   UNL     1      21.997  -0.971  21.393  1.00  0.00    -0.008 C 
ATOM     23  C   UNL     1      20.486  -0.296  23.309  1.00  0.00    -0.027 C 
ATOM     24  C   UNL     1      21.738  -0.480  22.827  1.00  0.00    -0.065 C 
ATOM     25  C   UNL     1      23.265  -1.875  21.426  1.00  0.00     0.014 C 
ATOM     26  C   UNL     1      22.251   0.255  20.467  1.00  0.00     0.016 C 
ATOM     27  C   UNL     1      22.887  -0.337  23.811  1.00  0.00     0.063 C 
ATOM     28  C   UNL     1      24.525  -1.198  22.006  1.00  0.00     0.033 C 
ATOM     29  C   UNL     1      24.252  -0.165  23.126  1.00  0.00     0.118 C 
BRANCH  29  30
ATOM     30  O   UNL     1      25.283  -0.188  24.082  1.00  0.00    -0.393 OA
ATOM     31  H   UNL     1      25.302  -1.094  24.489  1.00  0.00     0.210 HD
ENDBRANCH  29  30
ENDBRANCH   1  11
TORSDOF 6
ENDMDL
MODEL 7
REMARK VINA RESULT:    -6.220      3.235     10.215
REMARK INTER + INTRA:          -9.351
REMARK INTER:                  -8.343
REMARK INTRA:                  -1.008
REMARK UNBOUND:                -1.132
REMARK SMILES CC[C@H](C=C[C@H](C)[C@@H]1CC[C@@H]2[C@H]3CC=C4C[C@@H](O)CC[C@@]4(C)[C@@H]3CC[C@@]21C)C(C)C
REMARK SMILES IDX 6 1 7 2 5 3 4 4 3 5 2 6 1 7 28 8 29 9 30 10 8 11 9 12 26 13
REMARK SMILES IDX 10 14 11 15 25 16 27 17 12 18 24 19 23 20 13 21 21 22 14 23
REMARK SMILES IDX 15 24 20 25 22 26 16 27 19 28 17 29 18 30
REMARK H PARENT 18 31
REMARK Flexibility Score: inf
ROOT
ATOM      1  C   UNL     1      12.589 -18.396  14.671  1.00  0.00     0.012 C 
ATOM      2  C   UNL     1      11.280 -18.952  14.078  1.00  0.00     0.012 C 
ENDROOT
BRANCH   1   3
ATOM      3  C   UNL     1      12.632 -18.697  16.161  1.00  0.00    -0.028 C 
ATOM      4  C   UNL     1      12.059 -17.897  17.081  1.00  0.00    -0.027 C 
BRANCH   4   5
ATOM      5  C   UNL     1      12.130 -18.120  18.583  1.00  0.00     0.014 C 
BRANCH   5   6
ATOM      6  C   UNL     1      13.386 -18.903  19.072  1.00  0.00     0.004 C 
ATOM      7  C   UNL     1      14.670 -18.093  19.274  1.00  0.00     0.004 C 
ENDBRANCH   5   6
BRANCH   5   8
ATOM      8  C   UNL     1      11.724 -16.858  19.421  1.00  0.00    -0.011 C 
ATOM      9  C   UNL     1      10.223 -16.744  19.744  1.00  0.00     0.008 C 
ATOM     10  C   UNL     1      12.196 -15.561  18.736  1.00  0.00     0.008 C 
ENDBRANCH   5   8
ENDBRANCH   4   5
ENDBRANCH   1   3
BRANCH   1  11
ATOM     11  C   UNL     1      13.868 -18.933  13.934  1.00  0.00     0.002 C 
ATOM     12  C   UNL     1      15.074 -19.107  14.870  1.00  0.00     0.005 C 
ATOM     13  C   UNL     1      14.427 -18.120  12.719  1.00  0.00    -0.026 C 
ATOM     14  C   UNL     1      16.327 -18.941  14.014  1.00  0.00     0.005 C 
ATOM     15  C   UNL     1      15.845 -18.731  12.571  1.00  0.00    -0.001 C 
ATOM     16  C   UNL     1      14.498 -16.578  13.034  1.00  0.00     0.007 C 
ATOM     17  C   UNL     1      13.594 -18.402  11.434  1.00  0.00     0.012 C 
ATOM     18  C   UNL     1      16.871 -17.926  11.699  1.00  0.00     0.000 C 
ATOM     19  C   UNL     1      15.763 -15.840  12.550  1.00  0.00     0.005 C 
ATOM     20  C   UNL     1      16.396 -16.503  11.314  1.00  0.00     0.003 C 
ATOM     21  C   UNL     1      17.262 -18.695  10.430  1.00  0.00     0.031 C 
ATOM     22  C   UNL     1      17.562 -15.687  10.630  1.00  0.00    -0.008 C 
ATOM     23  C   UNL     1      18.077 -17.873   9.461  1.00  0.00    -0.027 C 
ATOM     24  C   UNL     1      18.140 -16.520   9.475  1.00  0.00    -0.065 C 
ATOM     25  C   UNL     1      16.994 -14.369  10.023  1.00  0.00     0.014 C 
ATOM     26  C   UNL     1      18.697 -15.352  11.642  1.00  0.00     0.016 C 
ATOM     27  C   UNL     1      18.666 -15.839   8.222  1.00  0.00     0.063 C 
ATOM     28  C   UNL     1      18.014 -13.542   9.212  1.00  0.00     0.033 C 
ATOM     29  C   UNL     1      19.075 -14.377   8.455  1.00  0.00     0.118 C 
BRANCH  29  30
ATOM     30  O   UNL     1      19.409 -13.763   7.235  1.00  0.00    -0.393 OA
ATOM     31  H   UNL     1      19.554 -14.480   6.562  1.00  0.00     0.210 HD
ENDBRANCH  29  30
ENDBRANCH   1  11
TORSDOF 6
ENDMDL
MODEL 8
REMARK VINA RESULT:    -5.811      4.249      7.856
REMARK INTER + INTRA:          -8.811
REMARK INTER:                  -9.143
REMARK INTRA:                   0.332
REMARK UNBOUND:                -1.132
REMARK SMILES CC[C@H](C=C[C@H](C)[C@@H]1CC[C@@H]2[C@H]3CC=C4C[C@@H](O)CC[C@@]4(C)[C@@H]3CC[C@@]21C)C(C)C
REMARK SMILES IDX 6 1 7 2 5 3 4 4 3 5 2 6 1 7 28 8 29 9 30 10 8 11 9 12 26 13
REMARK SMILES IDX 10 14 11 15 25 16 27 17 12 18 24 19 23 20 13 21 21 22 14 23
REMARK SMILES IDX 15 24 20 25 22 26 16 27 19 28 17 29 18 30
REMARK H PARENT 18 31
REMARK Flexibility Score: inf
ROOT
ATOM      1  C   UNL     1      14.666 -19.117  13.305  1.00  0.00     0.012 C 
ATOM      2  C   UNL     1      13.390 -18.961  12.457  1.00  0.00     0.012 C 
ENDROOT
BRANCH   1   3
ATOM      3  C   UNL     1      15.885 -18.902  12.422  1.00  0.00    -0.028 C 
ATOM      4  C   UNL     1      17.018 -18.332  12.874  1.00  0.00    -0.027 C 
BRANCH   4   5
ATOM      5  C   UNL     1      18.238 -18.037  12.015  1.00  0.00     0.014 C 
BRANCH   5   6
ATOM      6  C   UNL     1      18.381 -18.932  10.748  1.00  0.00     0.004 C 
ATOM      7  C   UNL     1      17.666 -18.455   9.480  1.00  0.00     0.004 C 
ENDBRANCH   5   6
BRANCH   5   8
ATOM      8  C   UNL     1      18.508 -16.504  11.821  1.00  0.00    -0.011 C 
ATOM      9  C   UNL     1      17.386 -15.730  11.105  1.00  0.00     0.008 C 
ATOM     10  C   UNL     1      19.840 -16.263  11.084  1.00  0.00     0.008 C 
ENDBRANCH   5   8
ENDBRANCH   4   5
ENDBRANCH   1   3
BRANCH   1  11
ATOM     11  C   UNL     1      14.683 -18.170  14.559  1.00  0.00     0.002 C 
ATOM     12  C   UNL     1      14.361 -18.903  15.871  1.00  0.00     0.005 C 
ATOM     13  C   UNL     1      13.742 -16.921  14.565  1.00  0.00    -0.026 C 
ATOM     14  C   UNL     1      13.743 -17.872  16.812  1.00  0.00     0.005 C 
ATOM     15  C   UNL     1      13.763 -16.530  16.065  1.00  0.00    -0.001 C 
ATOM     16  C   UNL     1      12.286 -17.287  14.088  1.00  0.00     0.007 C 
ATOM     17  C   UNL     1      14.348 -15.768  13.711  1.00  0.00     0.012 C 
ATOM     18  C   UNL     1      12.643 -15.547  16.553  1.00  0.00     0.000 C 
ATOM     19  C   UNL     1      11.127 -16.646  14.880  1.00  0.00     0.005 C 
ATOM     20  C   UNL     1      11.520 -15.300  15.515  1.00  0.00     0.003 C 
ATOM     21  C   UNL     1      13.226 -14.201  17.002  1.00  0.00     0.031 C 
ATOM     22  C   UNL     1      10.332 -14.482  16.156  1.00  0.00    -0.008 C 
ATOM     23  C   UNL     1      12.174 -13.155  17.277  1.00  0.00    -0.027 C 
ATOM     24  C   UNL     1      10.901 -13.217  16.819  1.00  0.00    -0.065 C 
ATOM     25  C   UNL     1       9.346 -14.027  15.038  1.00  0.00     0.014 C 
ATOM     26  C   UNL     1       9.566 -15.321  17.220  1.00  0.00     0.016 C 
ATOM     27  C   UNL     1      10.095 -11.929  16.838  1.00  0.00     0.063 C 
ATOM     28  C   UNL     1       8.206 -13.104  15.521  1.00  0.00     0.033 C 
ATOM     29  C   UNL     1       8.583 -12.159  16.688  1.00  0.00     0.118 C 
BRANCH  29  30
ATOM     30  O   UNL     1       7.912 -10.929  16.563  1.00  0.00    -0.393 OA
ATOM     31  H   UNL     1       7.298 -10.994  15.785  1.00  0.00     0.210 HD
ENDBRANCH  29  30
ENDBRANCH   1  11
TORSDOF 6
ENDMDL
MODEL 9
REMARK VINA RESULT:    -5.130      3.144      9.409
REMARK INTER + INTRA:          -7.911
REMARK INTER:                  -6.768
REMARK INTRA:                  -1.143
REMARK UNBOUND:                -1.132
REMARK SMILES CC[C@H](C=C[C@H](C)[C@@H]1CC[C@@H]2[C@H]3CC=C4C[C@@H](O)CC[C@@]4(C)[C@@H]3CC[C@@]21C)C(C)C
REMARK SMILES IDX 6 1 7 2 5 3 4 4 3 5 2 6 1 7 28 8 29 9 30 10 8 11 9 12 26 13
REMARK SMILES IDX 10 14 11 15 25 16 27 17 12 18 24 19 23 20 13 21 21 22 14 23
REMARK SMILES IDX 15 24 20 25 22 26 16 27 19 28 17 29 18 30
REMARK H PARENT 18 31
REMARK Flexibility Score: inf
ROOT
ATOM      1  C   UNL     1      13.184 -18.020  14.570  1.00  0.00     0.012 C 
ATOM      2  C   UNL     1      12.282 -19.125  15.151  1.00  0.00     0.012 C 
ENDROOT
BRANCH   1   3
ATOM      3  C   UNL     1      13.653 -17.112  15.697  1.00  0.00    -0.028 C 
ATOM      4  C   UNL     1      13.029 -15.960  16.009  1.00  0.00    -0.027 C 
BRANCH   4   5
ATOM      5  C   UNL     1      13.496 -14.989  17.082  1.00  0.00     0.014 C 
BRANCH   5   6
ATOM      6  C   UNL     1      13.843 -13.560  16.567  1.00  0.00     0.004 C 
ATOM      7  C   UNL     1      13.081 -13.066  15.332  1.00  0.00     0.004 C 
ENDBRANCH   5   6
BRANCH   5   8
ATOM      8  C   UNL     1      12.658 -15.070  18.404  1.00  0.00    -0.011 C 
ATOM      9  C   UNL     1      13.091 -16.174  19.385  1.00  0.00     0.008 C 
ATOM     10  C   UNL     1      11.154 -15.222  18.101  1.00  0.00     0.008 C 
ENDBRANCH   5   8
ENDBRANCH   4   5
ENDBRANCH   1   3
BRANCH   1  11
ATOM     11  C   UNL     1      14.393 -18.592  13.745  1.00  0.00     0.002 C 
ATOM     12  C   UNL     1      15.673 -18.747  14.582  1.00  0.00     0.005 C 
ATOM     13  C   UNL     1      14.853 -17.823  12.462  1.00  0.00    -0.026 C 
ATOM     14  C   UNL     1      16.850 -18.621  13.618  1.00  0.00     0.005 C 
ATOM     15  C   UNL     1      16.249 -18.452  12.215  1.00  0.00    -0.001 C 
ATOM     16  C   UNL     1      14.960 -16.273  12.719  1.00  0.00     0.007 C 
ATOM     17  C   UNL     1      13.912 -18.138  11.262  1.00  0.00     0.012 C 
ATOM     18  C   UNL     1      17.202 -17.685  11.234  1.00  0.00     0.000 C 
ATOM     19  C   UNL     1      16.184 -15.562  12.106  1.00  0.00     0.005 C 
ATOM     20  C   UNL     1      16.706 -16.270  10.844  1.00  0.00     0.003 C 
ATOM     21  C   UNL     1      17.479 -18.497   9.961  1.00  0.00     0.031 C 
ATOM     22  C   UNL     1      17.815 -15.488  10.037  1.00  0.00    -0.008 C 
ATOM     23  C   UNL     1      18.215 -17.714   8.901  1.00  0.00    -0.027 C 
ATOM     24  C   UNL     1      18.288 -16.363   8.865  1.00  0.00    -0.065 C 
ATOM     25  C   UNL     1      17.206 -14.185   9.439  1.00  0.00     0.014 C 
ATOM     26  C   UNL     1      19.034 -15.131  10.939  1.00  0.00     0.016 C 
ATOM     27  C   UNL     1      18.709 -15.727   7.551  1.00  0.00     0.063 C 
ATOM     28  C   UNL     1      18.159 -13.393   8.517  1.00  0.00     0.033 C 
ATOM     29  C   UNL     1      19.147 -14.261   7.701  1.00  0.00     0.118 C 
BRANCH  29  30
ATOM     30  O   UNL     1      19.380 -13.690   6.437  1.00  0.00    -0.393 OA
ATOM     31  H   UNL     1      19.289 -12.704   6.527  1.00  0.00     0.210 HD
ENDBRANCH  29  30
ENDBRANCH   1  11
TORSDOF 6
ENDMDL
