MODEL 1
REMARK VINA RESULT:    -7.222      0.000      0.000
REMARK INTER + INTRA:          -8.795
REMARK INTER:                  -8.699
REMARK INTRA:                  -0.095
REMARK UNBOUND:                -0.095
REMARK SMILES O=c1c(O)c(-c2ccc(O)c(O)c2)oc2cc(O)cc(O)c12
REMARK SMILES IDX 5 1 3 2 2 3 1 4 22 5 20 6 19 7 17 8 16 9 15 10 14 11 6 12
REMARK SMILES IDX 7 13 8 14 9 15 13 16 11 17 10 18 12 20 4 22 21 24 18 26
REMARK H PARENT 10 19 12 21 4 23 21 25 18 27
REMARK Flexibility Score: inf
ROOT
ATOM      1  C   UNL     1     -13.474 -40.486 -17.322  1.00  0.00     0.180 A 
ATOM      2  C   UNL     1     -14.077 -39.252 -17.024  1.00  0.00     0.208 A 
ATOM      3  C   UNL     1     -15.330 -38.953 -17.582  1.00  0.00     0.238 A 
ATOM      4  O   UNL     1     -15.890 -37.870 -17.268  1.00  0.00    -0.285 OA
ATOM      5  C   UNL     1     -15.958 -39.885 -18.444  1.00  0.00     0.111 A 
ATOM      6  C   UNL     1     -17.209 -39.671 -19.097  1.00  0.00     0.134 A 
ATOM      7  C   UNL     1     -17.796 -40.714 -19.824  1.00  0.00     0.093 A 
ATOM      8  C   UNL     1     -17.150 -41.940 -19.976  1.00  0.00     0.123 A 
ATOM      9  C   UNL     1     -15.899 -42.140 -19.390  1.00  0.00     0.094 A 
ATOM     10  C   UNL     1     -15.303 -41.131 -18.630  1.00  0.00     0.146 A 
ATOM     11  O   UNL     1     -14.118 -41.366 -18.081  1.00  0.00    -0.452 OA
ENDROOT
BRANCH   1  12
ATOM     12  C   UNL     1     -12.144 -40.861 -16.792  1.00  0.00     0.025 A 
ATOM     13  C   UNL     1     -11.034 -40.050 -17.075  1.00  0.00     0.016 A 
ATOM     14  C   UNL     1      -9.772 -40.373 -16.568  1.00  0.00     0.051 A 
ATOM     15  C   UNL     1      -9.603 -41.500 -15.759  1.00  0.00     0.157 A 
ATOM     16  C   UNL     1     -11.975 -41.982 -15.960  1.00  0.00     0.062 A 
ATOM     17  C   UNL     1     -10.710 -42.307 -15.448  1.00  0.00     0.158 A 
BRANCH  15  18
ATOM     18  O   UNL     1      -8.333 -41.799 -15.268  1.00  0.00    -0.504 OA
ATOM     19  H   UNL     1      -7.516 -41.256 -15.522  1.00  0.00     0.293 HD
ENDBRANCH  15  18
BRANCH  17  20
ATOM     20  O   UNL     1     -10.552 -43.425 -14.630  1.00  0.00    -0.504 OA
ATOM     21  H   UNL     1     -11.066 -43.525 -13.762  1.00  0.00     0.293 HD
ENDBRANCH  17  20
ENDBRANCH   1  12
BRANCH   2  22
ATOM     22  O   UNL     1     -13.451 -38.356 -16.153  1.00  0.00    -0.502 OA
ATOM     23  H   UNL     1     -12.549 -38.546 -15.733  1.00  0.00     0.293 HD
ENDBRANCH   2  22
BRANCH   6  24
ATOM     24  O   UNL     1     -17.895 -38.453 -19.087  1.00  0.00    -0.507 OA
ATOM     25  H   UNL     1     -17.795 -37.743 -18.377  1.00  0.00     0.293 HD
ENDBRANCH   6  24
BRANCH   8  26
ATOM     26  O   UNL     1     -17.756 -42.950 -20.717  1.00  0.00    -0.508 OA
ATOM     27  H   UNL     1     -18.440 -42.742 -21.436  1.00  0.00     0.293 HD
ENDBRANCH   8  26
TORSDOF 6
ENDMDL
MODEL 2
REMARK VINA RESULT:    -7.181      3.211      4.199
REMARK INTER + INTRA:          -8.746
REMARK INTER:                  -8.796
REMARK INTRA:                   0.050
REMARK UNBOUND:                -0.095
REMARK SMILES O=c1c(O)c(-c2ccc(O)c(O)c2)oc2cc(O)cc(O)c12
REMARK SMILES IDX 5 1 3 2 2 3 1 4 22 5 20 6 19 7 17 8 16 9 15 10 14 11 6 12
REMARK SMILES IDX 7 13 8 14 9 15 13 16 11 17 10 18 12 20 4 22 21 24 18 26
REMARK H PARENT 10 19 12 21 4 23 21 25 18 27
REMARK Flexibility Score: inf
ROOT
ATOM      1  C   UNL     1     -12.281 -39.530 -18.042  1.00  0.00     0.180 A 
ATOM      2  C   UNL     1     -13.603 -39.092 -17.852  1.00  0.00     0.208 A 
ATOM      3  C   UNL     1     -14.133 -38.128 -18.724  1.00  0.00     0.238 A 
ATOM      4  O   UNL     1     -15.335 -37.780 -18.583  1.00  0.00    -0.285 OA
ATOM      5  C   UNL     1     -13.329 -37.601 -19.764  1.00  0.00     0.111 A 
ATOM      6  C   UNL     1     -13.749 -36.591 -20.681  1.00  0.00     0.134 A 
ATOM      7  C   UNL     1     -12.917 -36.239 -21.750  1.00  0.00     0.093 A 
ATOM      8  C   UNL     1     -11.654 -36.812 -21.899  1.00  0.00     0.123 A 
ATOM      9  C   UNL     1     -11.210 -37.758 -20.975  1.00  0.00     0.094 A 
ATOM     10  C   UNL     1     -12.032 -38.155 -19.918  1.00  0.00     0.146 A 
ATOM     11  O   UNL     1     -11.575 -39.066 -19.067  1.00  0.00    -0.452 OA
ENDROOT
BRANCH   1  12
ATOM     12  C   UNL     1     -11.646 -40.525 -17.149  1.00  0.00     0.025 A 
ATOM     13  C   UNL     1     -12.310 -41.732 -16.875  1.00  0.00     0.016 A 
ATOM     14  C   UNL     1     -11.720 -42.694 -16.051  1.00  0.00     0.051 A 
ATOM     15  C   UNL     1     -10.453 -42.475 -15.503  1.00  0.00     0.157 A 
ATOM     16  C   UNL     1     -10.362 -40.316 -16.613  1.00  0.00     0.062 A 
ATOM     17  C   UNL     1      -9.767 -41.282 -15.788  1.00  0.00     0.158 A 
BRANCH  15  18
ATOM     18  O   UNL     1      -9.890 -43.452 -14.683  1.00  0.00    -0.504 OA
ATOM     19  H   UNL     1     -10.358 -43.794 -13.853  1.00  0.00     0.293 HD
ENDBRANCH  15  18
BRANCH  17  20
ATOM     20  O   UNL     1      -8.497 -41.062 -15.255  1.00  0.00    -0.504 OA
ATOM     21  H   UNL     1      -8.283 -41.276 -14.288  1.00  0.00     0.293 HD
ENDBRANCH  17  20
ENDBRANCH   1  12
BRANCH   2  22
ATOM     22  O   UNL     1     -14.386 -39.641 -16.833  1.00  0.00    -0.502 OA
ATOM     23  H   UNL     1     -15.394 -39.716 -16.902  1.00  0.00     0.293 HD
ENDBRANCH   2  22
BRANCH   6  24
ATOM     24  O   UNL     1     -14.953 -35.888 -20.570  1.00  0.00    -0.507 OA
ATOM     25  H   UNL     1     -15.818 -36.154 -21.017  1.00  0.00     0.293 HD
ENDBRANCH   6  24
BRANCH   8  26
ATOM     26  O   UNL     1     -10.847 -36.428 -22.966  1.00  0.00    -0.508 OA
ATOM     27  H   UNL     1      -9.886 -36.136 -22.826  1.00  0.00     0.293 HD
ENDBRANCH   8  26
TORSDOF 6
ENDMDL
MODEL 3
REMARK VINA RESULT:    -6.951      2.061      2.342
REMARK INTER + INTRA:          -8.468
REMARK INTER:                  -8.636
REMARK INTRA:                   0.169
REMARK UNBOUND:                -0.095
REMARK SMILES O=c1c(O)c(-c2ccc(O)c(O)c2)oc2cc(O)cc(O)c12
REMARK SMILES IDX 5 1 3 2 2 3 1 4 22 5 20 6 19 7 17 8 16 9 15 10 14 11 6 12
REMARK SMILES IDX 7 13 8 14 9 15 13 16 11 17 10 18 12 20 4 22 21 24 18 26
REMARK H PARENT 10 19 12 21 4 23 21 25 18 27
REMARK Flexibility Score: inf
ROOT
ATOM      1  C   UNL     1     -13.475 -40.123 -18.038  1.00  0.00     0.180 A 
ATOM      2  C   UNL     1     -14.749 -40.265 -17.462  1.00  0.00     0.208 A 
ATOM      3  C   UNL     1     -15.880 -39.912 -18.214  1.00  0.00     0.238 A 
ATOM      4  O   UNL     1     -17.021 -40.093 -17.712  1.00  0.00    -0.285 OA
ATOM      5  C   UNL     1     -15.723 -39.404 -19.526  1.00  0.00     0.111 A 
ATOM      6  C   UNL     1     -16.797 -38.976 -20.364  1.00  0.00     0.134 A 
ATOM      7  C   UNL     1     -16.535 -38.614 -21.691  1.00  0.00     0.093 A 
ATOM      8  C   UNL     1     -15.234 -38.601 -22.191  1.00  0.00     0.123 A 
ATOM      9  C   UNL     1     -14.170 -38.962 -21.363  1.00  0.00     0.094 A 
ATOM     10  C   UNL     1     -14.403 -39.361 -20.045  1.00  0.00     0.146 A 
ATOM     11  O   UNL     1     -13.364 -39.706 -19.294  1.00  0.00    -0.452 OA
ENDROOT
BRANCH   1  12
ATOM     12  C   UNL     1     -12.235 -40.451 -17.298  1.00  0.00     0.025 A 
ATOM     13  C   UNL     1     -11.125 -39.598 -17.398  1.00  0.00     0.016 A 
ATOM     14  C   UNL     1      -9.950 -39.878 -16.693  1.00  0.00     0.051 A 
ATOM     15  C   UNL     1      -9.874 -41.002 -15.866  1.00  0.00     0.157 A 
ATOM     16  C   UNL     1     -12.163 -41.570 -16.448  1.00  0.00     0.062 A 
ATOM     17  C   UNL     1     -10.986 -41.851 -15.738  1.00  0.00     0.158 A 
BRANCH  15  18
ATOM     18  O   UNL     1      -8.690 -41.256 -15.175  1.00  0.00    -0.504 OA
ATOM     19  H   UNL     1      -8.674 -41.420 -14.176  1.00  0.00     0.293 HD
ENDBRANCH  15  18
BRANCH  17  20
ATOM     20  O   UNL     1     -10.921 -42.966 -14.903  1.00  0.00    -0.504 OA
ATOM     21  H   UNL     1     -11.648 -43.672 -14.904  1.00  0.00     0.293 HD
ENDBRANCH  17  20
ENDBRANCH   1  12
BRANCH   2  22
ATOM     22  O   UNL     1     -14.883 -40.789 -16.173  1.00  0.00    -0.502 OA
ATOM     23  H   UNL     1     -15.702 -40.624 -15.600  1.00  0.00     0.293 HD
ENDBRANCH   2  22
BRANCH   6  24
ATOM     24  O   UNL     1     -18.122 -38.863 -19.936  1.00  0.00    -0.507 OA
ATOM     25  H   UNL     1     -18.928 -39.134 -20.481  1.00  0.00     0.293 HD
ENDBRANCH   6  24
BRANCH   8  26
ATOM     26  O   UNL     1     -15.009 -38.222 -23.512  1.00  0.00    -0.508 OA
ATOM     27  H   UNL     1     -15.610 -38.536 -24.264  1.00  0.00     0.293 HD
ENDBRANCH   8  26
TORSDOF 6
ENDMDL
MODEL 4
REMARK VINA RESULT:    -6.886     12.668     15.417
REMARK INTER + INTRA:          -8.390
REMARK INTER:                  -8.111
REMARK INTRA:                  -0.279
REMARK UNBOUND:                -0.095
REMARK SMILES O=c1c(O)c(-c2ccc(O)c(O)c2)oc2cc(O)cc(O)c12
REMARK SMILES IDX 5 1 3 2 2 3 1 4 22 5 20 6 19 7 17 8 16 9 15 10 14 11 6 12
REMARK SMILES IDX 7 13 8 14 9 15 13 16 11 17 10 18 12 20 4 22 21 24 18 26
REMARK H PARENT 10 19 12 21 4 23 21 25 18 27
REMARK Flexibility Score: inf
ROOT
ATOM      1  C   UNL     1      -0.390 -47.719 -19.457  1.00  0.00     0.180 A 
ATOM      2  C   UNL     1      -0.353 -47.925 -20.846  1.00  0.00     0.208 A 
ATOM      3  C   UNL     1      -0.797 -46.902 -21.699  1.00  0.00     0.238 A 
ATOM      4  O   UNL     1      -0.711 -47.070 -22.943  1.00  0.00    -0.285 OA
ATOM      5  C   UNL     1      -1.288 -45.692 -21.150  1.00  0.00     0.111 A 
ATOM      6  C   UNL     1      -1.802 -44.603 -21.918  1.00  0.00     0.134 A 
ATOM      7  C   UNL     1      -2.140 -43.405 -21.277  1.00  0.00     0.093 A 
ATOM      8  C   UNL     1      -2.045 -43.277 -19.892  1.00  0.00     0.123 A 
ATOM      9  C   UNL     1      -1.600 -44.355 -19.126  1.00  0.00     0.094 A 
ATOM     10  C   UNL     1      -1.222 -45.552 -19.740  1.00  0.00     0.146 A 
ATOM     11  O   UNL     1      -0.795 -46.549 -18.975  1.00  0.00    -0.452 OA
ENDROOT
BRANCH   1  12
ATOM     12  C   UNL     1       0.038 -48.760 -18.495  1.00  0.00     0.025 A 
ATOM     13  C   UNL     1       1.406 -48.949 -18.245  1.00  0.00     0.016 A 
ATOM     14  C   UNL     1       1.833 -49.913 -17.326  1.00  0.00     0.051 A 
ATOM     15  C   UNL     1       0.900 -50.688 -16.632  1.00  0.00     0.157 A 
ATOM     16  C   UNL     1      -0.899 -49.528 -17.779  1.00  0.00     0.062 A 
ATOM     17  C   UNL     1      -0.474 -50.493 -16.855  1.00  0.00     0.158 A 
BRANCH  15  18
ATOM     18  O   UNL     1       1.354 -51.642 -15.722  1.00  0.00    -0.504 OA
ATOM     19  H   UNL     1       0.947 -52.568 -15.665  1.00  0.00     0.293 HD
ENDBRANCH  15  18
BRANCH  17  20
ATOM     20  O   UNL     1      -1.410 -51.254 -16.155  1.00  0.00    -0.504 OA
ATOM     21  H   UNL     1      -1.741 -52.144 -16.509  1.00  0.00     0.293 HD
ENDBRANCH  17  20
ENDBRANCH   1  12
BRANCH   2  22
ATOM     22  O   UNL     1       0.156 -49.118 -21.367  1.00  0.00    -0.502 OA
ATOM     23  H   UNL     1      -0.031 -49.422 -22.316  1.00  0.00     0.293 HD
ENDBRANCH   2  22
BRANCH   6  24
ATOM     24  O   UNL     1      -2.024 -44.658 -23.297  1.00  0.00    -0.507 OA
ATOM     25  H   UNL     1      -2.631 -45.321 -23.756  1.00  0.00     0.293 HD
ENDBRANCH   6  24
BRANCH   8  26
ATOM     26  O   UNL     1      -2.404 -42.076 -19.287  1.00  0.00    -0.508 OA
ATOM     27  H   UNL     1      -1.803 -41.261 -19.328  1.00  0.00     0.293 HD
ENDBRANCH   8  26
TORSDOF 6
ENDMDL
MODEL 5
REMARK VINA RESULT:    -6.865      4.560      7.312
REMARK INTER + INTRA:          -8.365
REMARK INTER:                  -8.055
REMARK INTRA:                  -0.310
REMARK UNBOUND:                -0.095
REMARK SMILES O=c1c(O)c(-c2ccc(O)c(O)c2)oc2cc(O)cc(O)c12
REMARK SMILES IDX 5 1 3 2 2 3 1 4 22 5 20 6 19 7 17 8 16 9 15 10 14 11 6 12
REMARK SMILES IDX 7 13 8 14 9 15 13 16 11 17 10 18 12 20 4 22 21 24 18 26
REMARK H PARENT 10 19 12 21 4 23 21 25 18 27
REMARK Flexibility Score: inf
ROOT
ATOM      1  C   UNL     1     -11.510 -39.671 -19.738  1.00  0.00     0.180 A 
ATOM      2  C   UNL     1     -11.409 -40.932 -20.349  1.00  0.00     0.208 A 
ATOM      3  C   UNL     1     -10.466 -41.120 -21.372  1.00  0.00     0.238 A 
ATOM      4  O   UNL     1     -10.342 -42.266 -21.878  1.00  0.00    -0.285 OA
ATOM      5  C   UNL     1      -9.648 -40.040 -21.783  1.00  0.00     0.111 A 
ATOM      6  C   UNL     1      -8.687 -40.105 -22.837  1.00  0.00     0.134 A 
ATOM      7  C   UNL     1      -7.843 -39.013 -23.070  1.00  0.00     0.093 A 
ATOM      8  C   UNL     1      -7.967 -37.836 -22.333  1.00  0.00     0.123 A 
ATOM      9  C   UNL     1      -8.942 -37.740 -21.340  1.00  0.00     0.094 A 
ATOM     10  C   UNL     1      -9.776 -38.825 -21.060  1.00  0.00     0.146 A 
ATOM     11  O   UNL     1     -10.684 -38.696 -20.100  1.00  0.00    -0.452 OA
ENDROOT
BRANCH   1  12
ATOM     12  C   UNL     1     -12.497 -39.390 -18.670  1.00  0.00     0.025 A 
ATOM     13  C   UNL     1     -12.179 -39.698 -17.338  1.00  0.00     0.016 A 
ATOM     14  C   UNL     1     -13.087 -39.423 -16.311  1.00  0.00     0.051 A 
ATOM     15  C   UNL     1     -14.316 -38.822 -16.597  1.00  0.00     0.157 A 
ATOM     16  C   UNL     1     -13.726 -38.766 -18.953  1.00  0.00     0.062 A 
ATOM     17  C   UNL     1     -14.637 -38.488 -17.924  1.00  0.00     0.158 A 
BRANCH  15  18
ATOM     18  O   UNL     1     -15.203 -38.561 -15.553  1.00  0.00    -0.504 OA
ATOM     19  H   UNL     1     -16.207 -38.587 -15.681  1.00  0.00     0.293 HD
ENDBRANCH  15  18
BRANCH  17  20
ATOM     20  O   UNL     1     -15.856 -37.875 -18.214  1.00  0.00    -0.504 OA
ATOM     21  H   UNL     1     -15.983 -37.318 -19.051  1.00  0.00     0.293 HD
ENDBRANCH  17  20
ENDBRANCH   1  12
BRANCH   2  22
ATOM     22  O   UNL     1     -12.211 -41.991 -19.913  1.00  0.00    -0.502 OA
ATOM     23  H   UNL     1     -11.875 -42.699 -19.271  1.00  0.00     0.293 HD
ENDBRANCH   2  22
BRANCH   6  24
ATOM     24  O   UNL     1      -8.543 -41.200 -23.694  1.00  0.00    -0.507 OA
ATOM     25  H   UNL     1      -9.156 -42.001 -23.712  1.00  0.00     0.293 HD
ENDBRANCH   6  24
BRANCH   8  26
ATOM     26  O   UNL     1      -7.120 -36.764 -22.602  1.00  0.00    -0.508 OA
ATOM     27  H   UNL     1      -7.434 -35.960 -23.133  1.00  0.00     0.293 HD
ENDBRANCH   8  26
TORSDOF 6
ENDMDL
MODEL 6
REMARK VINA RESULT:    -6.722      3.586      4.281
REMARK INTER + INTRA:          -8.192
REMARK INTER:                  -8.356
REMARK INTRA:                   0.163
REMARK UNBOUND:                -0.095
REMARK SMILES O=c1c(O)c(-c2ccc(O)c(O)c2)oc2cc(O)cc(O)c12
REMARK SMILES IDX 5 1 3 2 2 3 1 4 22 5 20 6 19 7 17 8 16 9 15 10 14 11 6 12
REMARK SMILES IDX 7 13 8 14 9 15 13 16 11 17 10 18 12 20 4 22 21 24 18 26
REMARK H PARENT 10 19 12 21 4 23 21 25 18 27
REMARK Flexibility Score: inf
ROOT
ATOM      1  C   UNL     1     -12.260 -40.107 -19.440  1.00  0.00     0.180 A 
ATOM      2  C   UNL     1     -12.188 -39.531 -18.160  1.00  0.00     0.208 A 
ATOM      3  C   UNL     1     -13.270 -39.689 -17.280  1.00  0.00     0.238 A 
ATOM      4  O   UNL     1     -13.178 -39.218 -16.117  1.00  0.00    -0.285 OA
ATOM      5  C   UNL     1     -14.418 -40.407 -17.697  1.00  0.00     0.111 A 
ATOM      6  C   UNL     1     -15.589 -40.595 -16.903  1.00  0.00     0.134 A 
ATOM      7  C   UNL     1     -16.611 -41.432 -17.367  1.00  0.00     0.093 A 
ATOM      8  C   UNL     1     -16.534 -42.035 -18.622  1.00  0.00     0.123 A 
ATOM      9  C   UNL     1     -15.420 -41.811 -19.431  1.00  0.00     0.094 A 
ATOM     10  C   UNL     1     -14.368 -41.009 -18.981  1.00  0.00     0.146 A 
ATOM     11  O   UNL     1     -13.322 -40.830 -19.778  1.00  0.00    -0.452 OA
ENDROOT
BRANCH   1  12
ATOM     12  C   UNL     1     -11.169 -39.962 -20.431  1.00  0.00     0.025 A 
ATOM     13  C   UNL     1     -10.506 -38.730 -20.553  1.00  0.00     0.016 A 
ATOM     14  C   UNL     1      -9.460 -38.576 -21.468  1.00  0.00     0.051 A 
ATOM     15  C   UNL     1      -9.050 -39.652 -22.260  1.00  0.00     0.157 A 
ATOM     16  C   UNL     1     -10.741 -41.049 -21.214  1.00  0.00     0.062 A 
ATOM     17  C   UNL     1      -9.690 -40.897 -22.131  1.00  0.00     0.158 A 
BRANCH  15  18
ATOM     18  O   UNL     1      -8.005 -39.469 -23.164  1.00  0.00    -0.504 OA
ATOM     19  H   UNL     1      -8.129 -39.592 -24.162  1.00  0.00     0.293 HD
ENDBRANCH  15  18
BRANCH  17  20
ATOM     20  O   UNL     1      -9.277 -41.978 -22.908  1.00  0.00    -0.504 OA
ATOM     21  H   UNL     1      -9.132 -41.890 -23.907  1.00  0.00     0.293 HD
ENDBRANCH  17  20
ENDBRANCH   1  12
BRANCH   2  22
ATOM     22  O   UNL     1     -11.037 -38.845 -17.761  1.00  0.00    -0.502 OA
ATOM     23  H   UNL     1     -10.320 -38.557 -18.417  1.00  0.00     0.293 HD
ENDBRANCH   2  22
BRANCH   6  24
ATOM     24  O   UNL     1     -15.808 -39.964 -15.675  1.00  0.00    -0.507 OA
ATOM     25  H   UNL     1     -15.988 -40.445 -14.806  1.00  0.00     0.293 HD
ENDBRANCH   6  24
BRANCH   8  26
ATOM     26  O   UNL     1     -17.576 -42.850 -19.058  1.00  0.00    -0.508 OA
ATOM     27  H   UNL     1     -18.073 -42.659 -19.920  1.00  0.00     0.293 HD
ENDBRANCH   8  26
TORSDOF 6
ENDMDL
MODEL 7
REMARK VINA RESULT:    -6.702      4.322      6.502
REMARK INTER + INTRA:          -8.169
REMARK INTER:                  -7.937
REMARK INTRA:                  -0.231
REMARK UNBOUND:                -0.095
REMARK SMILES O=c1c(O)c(-c2ccc(O)c(O)c2)oc2cc(O)cc(O)c12
REMARK SMILES IDX 5 1 3 2 2 3 1 4 22 5 20 6 19 7 17 8 16 9 15 10 14 11 6 12
REMARK SMILES IDX 7 13 8 14 9 15 13 16 11 17 10 18 12 20 4 22 21 24 18 26
REMARK H PARENT 10 19 12 21 4 23 21 25 18 27
REMARK Flexibility Score: inf
ROOT
ATOM      1  C   UNL     1     -13.181 -38.605 -19.738  1.00  0.00     0.180 A 
ATOM      2  C   UNL     1     -13.497 -37.433 -20.445  1.00  0.00     0.208 A 
ATOM      3  C   UNL     1     -12.564 -36.915 -21.357  1.00  0.00     0.238 A 
ATOM      4  O   UNL     1     -12.874 -35.896 -22.027  1.00  0.00    -0.285 OA
ATOM      5  C   UNL     1     -11.319 -37.566 -21.537  1.00  0.00     0.111 A 
ATOM      6  C   UNL     1     -10.282 -37.107 -22.403  1.00  0.00     0.134 A 
ATOM      7  C   UNL     1      -9.145 -37.900 -22.601  1.00  0.00     0.093 A 
ATOM      8  C   UNL     1      -8.978 -39.102 -21.915  1.00  0.00     0.123 A 
ATOM      9  C   UNL     1      -9.959 -39.532 -21.021  1.00  0.00     0.094 A 
ATOM     10  C   UNL     1     -11.120 -38.780 -20.829  1.00  0.00     0.146 A 
ATOM     11  O   UNL     1     -12.033 -39.230 -19.977  1.00  0.00    -0.452 OA
ENDROOT
BRANCH   1  12
ATOM     12  C   UNL     1     -14.104 -39.197 -18.743  1.00  0.00     0.025 A 
ATOM     13  C   UNL     1     -14.679 -40.453 -18.995  1.00  0.00     0.016 A 
ATOM     14  C   UNL     1     -15.537 -41.040 -18.061  1.00  0.00     0.051 A 
ATOM     15  C   UNL     1     -15.820 -40.391 -16.856  1.00  0.00     0.157 A 
ATOM     16  C   UNL     1     -14.374 -38.556 -17.520  1.00  0.00     0.062 A 
ATOM     17  C   UNL     1     -15.233 -39.144 -16.581  1.00  0.00     0.158 A 
BRANCH  15  18
ATOM     18  O   UNL     1     -16.681 -41.000 -15.943  1.00  0.00    -0.504 OA
ATOM     19  H   UNL     1     -16.617 -41.985 -15.718  1.00  0.00     0.293 HD
ENDBRANCH  15  18
BRANCH  17  20
ATOM     20  O   UNL     1     -15.501 -38.498 -15.374  1.00  0.00    -0.504 OA
ATOM     21  H   UNL     1     -16.442 -38.226 -15.115  1.00  0.00     0.293 HD
ENDBRANCH  17  20
ENDBRANCH   1  12
BRANCH   2  22
ATOM     22  O   UNL     1     -14.741 -36.819 -20.269  1.00  0.00    -0.502 OA
ATOM     23  H   UNL     1     -15.228 -36.350 -21.023  1.00  0.00     0.293 HD
ENDBRANCH   2  22
BRANCH   6  24
ATOM     24  O   UNL     1     -10.307 -35.876 -23.066  1.00  0.00    -0.507 OA
ATOM     25  H   UNL     1     -10.415 -34.980 -22.613  1.00  0.00     0.293 HD
ENDBRANCH   6  24
BRANCH   8  26
ATOM     26  O   UNL     1      -7.828 -39.859 -22.125  1.00  0.00    -0.508 OA
ATOM     27  H   UNL     1      -7.623 -40.274 -23.026  1.00  0.00     0.293 HD
ENDBRANCH   8  26
TORSDOF 6
ENDMDL
MODEL 8
REMARK VINA RESULT:    -6.614     14.269     15.438
REMARK INTER + INTRA:          -8.063
REMARK INTER:                  -7.802
REMARK INTRA:                  -0.261
REMARK UNBOUND:                -0.095
REMARK SMILES O=c1c(O)c(-c2ccc(O)c(O)c2)oc2cc(O)cc(O)c12
REMARK SMILES IDX 5 1 3 2 2 3 1 4 22 5 20 6 19 7 17 8 16 9 15 10 14 11 6 12
REMARK SMILES IDX 7 13 8 14 9 15 13 16 11 17 10 18 12 20 4 22 21 24 18 26
REMARK H PARENT 10 19 12 21 4 23 21 25 18 27
REMARK Flexibility Score: inf
ROOT
ATOM      1  C   UNL     1      -0.241 -47.590 -19.265  1.00  0.00     0.180 A 
ATOM      2  C   UNL     1      -0.157 -46.233 -18.912  1.00  0.00     0.208 A 
ATOM      3  C   UNL     1      -0.522 -45.259 -19.854  1.00  0.00     0.238 A 
ATOM      4  O   UNL     1      -0.497 -44.047 -19.513  1.00  0.00    -0.285 OA
ATOM      5  C   UNL     1      -0.951 -45.654 -21.145  1.00  0.00     0.111 A 
ATOM      6  C   UNL     1      -1.306 -44.752 -22.193  1.00  0.00     0.134 A 
ATOM      7  C   UNL     1      -1.840 -45.255 -23.385  1.00  0.00     0.093 A 
ATOM      8  C   UNL     1      -1.971 -46.627 -23.594  1.00  0.00     0.123 A 
ATOM      9  C   UNL     1      -1.571 -47.520 -22.599  1.00  0.00     0.094 A 
ATOM     10  C   UNL     1      -1.068 -47.048 -21.385  1.00  0.00     0.146 A 
ATOM     11  O   UNL     1      -0.709 -47.931 -20.461  1.00  0.00    -0.452 OA
ENDROOT
BRANCH   1  12
ATOM     12  C   UNL     1       0.150 -48.672 -18.334  1.00  0.00     0.025 A 
ATOM     13  C   UNL     1       1.511 -48.907 -18.080  1.00  0.00     0.016 A 
ATOM     14  C   UNL     1       1.903 -49.910 -17.188  1.00  0.00     0.051 A 
ATOM     15  C   UNL     1       0.943 -50.680 -16.526  1.00  0.00     0.157 A 
ATOM     16  C   UNL     1      -0.814 -49.435 -17.649  1.00  0.00     0.062 A 
ATOM     17  C   UNL     1      -0.422 -50.440 -16.753  1.00  0.00     0.158 A 
BRANCH  15  18
ATOM     18  O   UNL     1       1.363 -51.675 -15.643  1.00  0.00    -0.504 OA
ATOM     19  H   UNL     1       1.093 -51.678 -14.667  1.00  0.00     0.293 HD
ENDBRANCH  15  18
BRANCH  17  20
ATOM     20  O   UNL     1      -1.385 -51.196 -16.085  1.00  0.00    -0.504 OA
ATOM     21  H   UNL     1      -2.009 -51.820 -16.582  1.00  0.00     0.293 HD
ENDBRANCH  17  20
ENDBRANCH   1  12
BRANCH   2  22
ATOM     22  O   UNL     1       0.247 -45.865 -17.625  1.00  0.00    -0.502 OA
ATOM     23  H   UNL     1      -0.411 -45.719 -16.868  1.00  0.00     0.293 HD
ENDBRANCH   2  22
BRANCH   6  24
ATOM     24  O   UNL     1      -1.130 -43.367 -22.123  1.00  0.00    -0.507 OA
ATOM     25  H   UNL     1      -1.199 -42.738 -22.909  1.00  0.00     0.293 HD
ENDBRANCH   6  24
BRANCH   8  26
ATOM     26  O   UNL     1      -2.492 -47.093 -24.799  1.00  0.00    -0.508 OA
ATOM     27  H   UNL     1      -2.301 -48.030 -25.132  1.00  0.00     0.293 HD
ENDBRANCH   8  26
TORSDOF 6
ENDMDL
MODEL 9
REMARK VINA RESULT:    -6.586      4.357      6.365
REMARK INTER + INTRA:          -8.028
REMARK INTER:                  -7.722
REMARK INTRA:                  -0.306
REMARK UNBOUND:                -0.095
REMARK SMILES O=c1c(O)c(-c2ccc(O)c(O)c2)oc2cc(O)cc(O)c12
REMARK SMILES IDX 5 1 3 2 2 3 1 4 22 5 20 6 19 7 17 8 16 9 15 10 14 11 6 12
REMARK SMILES IDX 7 13 8 14 9 15 13 16 11 17 10 18 12 20 4 22 21 24 18 26
REMARK H PARENT 10 19 12 21 4 23 21 25 18 27
REMARK Flexibility Score: inf
ROOT
ATOM      1  C   UNL     1     -13.194 -39.399 -19.533  1.00  0.00     0.180 A 
ATOM      2  C   UNL     1     -11.941 -40.034 -19.517  1.00  0.00     0.208 A 
ATOM      3  C   UNL     1     -11.018 -39.747 -20.535  1.00  0.00     0.238 A 
ATOM      4  O   UNL     1      -9.878 -40.277 -20.485  1.00  0.00    -0.285 OA
ATOM      5  C   UNL     1     -11.366 -38.841 -21.566  1.00  0.00     0.111 A 
ATOM      6  C   UNL     1     -10.526 -38.506 -22.670  1.00  0.00     0.134 A 
ATOM      7  C   UNL     1     -10.921 -37.500 -23.559  1.00  0.00     0.093 A 
ATOM      8  C   UNL     1     -12.153 -36.862 -23.424  1.00  0.00     0.123 A 
ATOM      9  C   UNL     1     -13.009 -37.223 -22.382  1.00  0.00     0.094 A 
ATOM     10  C   UNL     1     -12.627 -38.198 -21.458  1.00  0.00     0.146 A 
ATOM     11  O   UNL     1     -13.466 -38.504 -20.476  1.00  0.00    -0.452 OA
ENDROOT
BRANCH   1  12
ATOM     12  C   UNL     1     -14.227 -39.670 -18.508  1.00  0.00     0.025 A 
ATOM     13  C   UNL     1     -15.038 -40.810 -18.628  1.00  0.00     0.016 A 
ATOM     14  C   UNL     1     -16.006 -41.096 -17.661  1.00  0.00     0.051 A 
ATOM     15  C   UNL     1     -16.168 -40.259 -16.553  1.00  0.00     0.157 A 
ATOM     16  C   UNL     1     -14.378 -38.841 -17.381  1.00  0.00     0.062 A 
ATOM     17  C   UNL     1     -15.347 -39.128 -16.409  1.00  0.00     0.158 A 
BRANCH  15  18
ATOM     18  O   UNL     1     -17.142 -40.569 -15.606  1.00  0.00    -0.504 OA
ATOM     19  H   UNL     1     -16.998 -40.416 -14.615  1.00  0.00     0.293 HD
ENDBRANCH  15  18
BRANCH  17  20
ATOM     20  O   UNL     1     -15.494 -38.296 -15.299  1.00  0.00    -0.504 OA
ATOM     21  H   UNL     1     -15.766 -37.325 -15.396  1.00  0.00     0.293 HD
ENDBRANCH  17  20
ENDBRANCH   1  12
BRANCH   2  22
ATOM     22  O   UNL     1     -11.609 -40.909 -18.478  1.00  0.00    -0.502 OA
ATOM     23  H   UNL     1     -12.167 -40.991 -17.636  1.00  0.00     0.293 HD
ENDBRANCH   2  22
BRANCH   6  24
ATOM     24  O   UNL     1      -9.316 -39.148 -22.951  1.00  0.00    -0.507 OA
ATOM     25  H   UNL     1      -8.621 -39.394 -22.261  1.00  0.00     0.293 HD
ENDBRANCH   6  24
BRANCH   8  26
ATOM     26  O   UNL     1     -12.520 -35.876 -24.335  1.00  0.00    -0.508 OA
ATOM     27  H   UNL     1     -13.488 -35.604 -24.461  1.00  0.00     0.293 HD
ENDBRANCH   8  26
TORSDOF 6
ENDMDL
