MODEL 1
REMARK VINA RESULT:     8.457      0.000      0.000
REMARK INTER + INTRA:          15.185
REMARK INTER:                  15.873
REMARK INTRA:                  -0.687
REMARK UNBOUND:                -0.687
REMARK SMILES CCCCCCCCC=CCCCCCCCC(=O)[O-]
REMARK SMILES IDX 10 1 9 2 11 3 12 4 13 5 14 6 15 7 16 8 17 9 18 10 19 11
REMARK SMILES IDX 20 12 8 13 7 14 6 15 5 16 4 17 3 18 2 19 1 20
REMARK H PARENT
REMARK Flexibility Score: inf
ROOT
ATOM      1  C   UNL     1      55.483 146.121  -2.025  1.00  0.00    -0.031 C 
ATOM      2  C   UNL     1      55.241 147.435  -1.861  1.00  0.00    -0.031 C 
ENDROOT
BRANCH   1   3
ATOM      3  C   UNL     1      55.294 145.074  -0.955  1.00  0.00     0.027 C 
BRANCH   3   4
ATOM      4  C   UNL     1      55.066 143.677  -1.553  1.00  0.00     0.004 C 
BRANCH   4   5
ATOM      5  C   UNL     1      56.262 142.744  -1.315  1.00  0.00     0.000 C 
BRANCH   5   6
ATOM      6  C   UNL     1      55.796 141.299  -1.089  1.00  0.00     0.000 C 
BRANCH   6   7
ATOM      7  C   UNL     1      54.319 141.205  -0.669  1.00  0.00     0.000 C 
BRANCH   7   8
ATOM      8  C   UNL     1      53.966 139.893   0.063  1.00  0.00     0.006 C 
BRANCH   8   9
ATOM      9  C   UNL     1      52.468 139.791   0.382  1.00  0.00     0.053 C 
BRANCH   9  10
ATOM     10  C   UNL     1      52.240 138.859   1.529  1.00  0.00     0.041 C 
ATOM     11  O   UNL     1      52.488 137.631   1.407  1.00  0.00    -0.550 OA
ATOM     12  O   UNL     1      51.707 139.339   2.719  1.00  0.00    -0.550 OA
ENDBRANCH   9  10
ENDBRANCH   8   9
ENDBRANCH   7   8
ENDBRANCH   6   7
ENDBRANCH   5   6
ENDBRANCH   4   5
ENDBRANCH   3   4
ENDBRANCH   1   3
BRANCH   2  13
ATOM     13  C   UNL     1      54.654 148.048  -0.616  1.00  0.00     0.027 C 
BRANCH  13  14
ATOM     14  C   UNL     1      53.122 147.989  -0.652  1.00  0.00     0.004 C 
BRANCH  14  15
ATOM     15  C   UNL     1      52.585 147.003   0.392  1.00  0.00     0.000 C 
BRANCH  15  16
ATOM     16  C   UNL     1      52.244 147.727   1.705  1.00  0.00     0.000 C 
BRANCH  16  17
ATOM     17  C   UNL     1      50.756 148.097   1.809  1.00  0.00    -0.000 C 
BRANCH  17  18
ATOM     18  C   UNL     1      50.000 147.885   0.487  1.00  0.00    -0.000 C 
BRANCH  18  19
ATOM     19  C   UNL     1      48.488 148.125   0.628  1.00  0.00    -0.003 C 
ATOM     20  C   UNL     1      47.681 147.513  -0.518  1.00  0.00     0.004 C 
ENDBRANCH  18  19
ENDBRANCH  17  18
ENDBRANCH  16  17
ENDBRANCH  15  16
ENDBRANCH  14  15
ENDBRANCH  13  14
ENDBRANCH   2  13
TORSDOF 15
ENDMDL
MODEL 2
REMARK VINA RESULT:     9.937      1.583      2.152
REMARK INTER + INTRA:          17.964
REMARK INTER:                  18.360
REMARK INTRA:                  -0.396
REMARK UNBOUND:                -0.687
REMARK SMILES CCCCCCCCC=CCCCCCCCC(=O)[O-]
REMARK SMILES IDX 10 1 9 2 11 3 12 4 13 5 14 6 15 7 16 8 17 9 18 10 19 11
REMARK SMILES IDX 20 12 8 13 7 14 6 15 5 16 4 17 3 18 2 19 1 20
REMARK H PARENT
REMARK Flexibility Score: inf
ROOT
ATOM      1  C   UNL     1      55.197 146.141  -1.586  1.00  0.00    -0.031 C 
ATOM      2  C   UNL     1      55.136 147.417  -1.162  1.00  0.00    -0.031 C 
ENDROOT
BRANCH   1   3
ATOM      3  C   UNL     1      54.585 144.966  -0.862  1.00  0.00     0.027 C 
BRANCH   3   4
ATOM      4  C   UNL     1      55.115 143.626  -1.394  1.00  0.00     0.004 C 
BRANCH   4   5
ATOM      5  C   UNL     1      54.521 142.428  -0.640  1.00  0.00     0.000 C 
BRANCH   5   6
ATOM      6  C   UNL     1      55.589 141.358  -0.377  1.00  0.00     0.000 C 
BRANCH   6   7
ATOM      7  C   UNL     1      55.165 139.959  -0.856  1.00  0.00     0.000 C 
BRANCH   7   8
ATOM      8  C   UNL     1      54.312 139.185   0.172  1.00  0.00     0.006 C 
BRANCH   8   9
ATOM      9  C   UNL     1      52.835 139.601   0.131  1.00  0.00     0.053 C 
BRANCH   9  10
ATOM     10  C   UNL     1      52.002 138.651   0.932  1.00  0.00     0.041 C 
ATOM     11  O   UNL     1      52.240 138.475   2.155  1.00  0.00    -0.550 OA
ATOM     12  O   UNL     1      50.991 137.925   0.315  1.00  0.00    -0.550 OA
ENDBRANCH   9  10
ENDBRANCH   8   9
ENDBRANCH   7   8
ENDBRANCH   6   7
ENDBRANCH   5   6
ENDBRANCH   4   5
ENDBRANCH   3   4
ENDBRANCH   1   3
BRANCH   2  13
ATOM     13  C   UNL     1      54.366 147.881   0.048  1.00  0.00     0.027 C 
BRANCH  13  14
ATOM     14  C   UNL     1      52.856 147.752  -0.187  1.00  0.00     0.004 C 
BRANCH  14  15
ATOM     15  C   UNL     1      52.490 148.124  -1.628  1.00  0.00     0.000 C 
BRANCH  15  16
ATOM     16  C   UNL     1      51.194 147.422  -2.063  1.00  0.00     0.000 C 
BRANCH  16  17
ATOM     17  C   UNL     1      50.596 148.022  -3.346  1.00  0.00    -0.000 C 
BRANCH  17  18
ATOM     18  C   UNL     1      49.061 147.934  -3.381  1.00  0.00    -0.000 C 
BRANCH  18  19
ATOM     19  C   UNL     1      48.429 148.125  -1.994  1.00  0.00    -0.003 C 
ATOM     20  C   UNL     1      46.914 147.917  -1.998  1.00  0.00     0.004 C 
ENDBRANCH  18  19
ENDBRANCH  17  18
ENDBRANCH  16  17
ENDBRANCH  15  16
ENDBRANCH  14  15
ENDBRANCH  13  14
ENDBRANCH   2  13
TORSDOF 15
ENDMDL
MODEL 3
REMARK VINA RESULT:    10.418      3.447      4.545
REMARK INTER + INTRA:          18.865
REMARK INTER:                  19.152
REMARK INTRA:                  -0.287
REMARK UNBOUND:                -0.687
REMARK SMILES CCCCCCCCC=CCCCCCCCC(=O)[O-]
REMARK SMILES IDX 10 1 9 2 11 3 12 4 13 5 14 6 15 7 16 8 17 9 18 10 19 11
REMARK SMILES IDX 20 12 8 13 7 14 6 15 5 16 4 17 3 18 2 19 1 20
REMARK H PARENT
REMARK Flexibility Score: inf
ROOT
ATOM      1  C   UNL     1      56.183 145.859  -1.962  1.00  0.00    -0.031 C 
ATOM      2  C   UNL     1      55.946 147.178  -2.096  1.00  0.00    -0.031 C 
ENDROOT
BRANCH   1   3
ATOM      3  C   UNL     1      55.151 144.777  -2.165  1.00  0.00     0.027 C 
BRANCH   3   4
ATOM      4  C   UNL     1      55.372 143.590  -1.215  1.00  0.00     0.004 C 
BRANCH   4   5
ATOM      5  C   UNL     1      55.779 142.315  -1.968  1.00  0.00     0.000 C 
BRANCH   5   6
ATOM      6  C   UNL     1      55.665 141.081  -1.063  1.00  0.00     0.000 C 
BRANCH   6   7
ATOM      7  C   UNL     1      54.496 141.174  -0.067  1.00  0.00     0.000 C 
BRANCH   7   8
ATOM      8  C   UNL     1      53.560 139.948  -0.094  1.00  0.00     0.006 C 
BRANCH   8   9
ATOM      9  C   UNL     1      52.298 140.162   0.753  1.00  0.00     0.053 C 
BRANCH   9  10
ATOM     10  C   UNL     1      51.907 138.892   1.439  1.00  0.00     0.041 C 
ATOM     11  O   UNL     1      52.397 138.601   2.562  1.00  0.00    -0.550 OA
ATOM     12  O   UNL     1      51.037 138.005   0.817  1.00  0.00    -0.550 OA
ENDBRANCH   9  10
ENDBRANCH   8   9
ENDBRANCH   7   8
ENDBRANCH   6   7
ENDBRANCH   5   6
ENDBRANCH   4   5
ENDBRANCH   3   4
ENDBRANCH   1   3
BRANCH   2  13
ATOM     13  C   UNL     1      54.641 147.770  -2.562  1.00  0.00     0.027 C 
BRANCH  13  14
ATOM     14  C   UNL     1      54.166 147.088  -3.851  1.00  0.00     0.004 C 
BRANCH  14  15
ATOM     15  C   UNL     1      53.755 148.125  -4.902  1.00  0.00     0.000 C 
BRANCH  15  16
ATOM     16  C   UNL     1      54.253 147.718  -6.298  1.00  0.00     0.000 C 
BRANCH  16  17
ATOM     17  C   UNL     1      53.127 147.691  -7.345  1.00  0.00    -0.000 C 
BRANCH  17  18
ATOM     18  C   UNL     1      51.757 148.057  -6.750  1.00  0.00    -0.000 C 
BRANCH  18  19
ATOM     19  C   UNL     1      50.608 147.853  -7.749  1.00  0.00    -0.003 C 
ATOM     20  C   UNL     1      50.364 146.380  -8.079  1.00  0.00     0.004 C 
ENDBRANCH  18  19
ENDBRANCH  17  18
ENDBRANCH  16  17
ENDBRANCH  15  16
ENDBRANCH  14  15
ENDBRANCH  13  14
ENDBRANCH   2  13
TORSDOF 15
ENDMDL
MODEL 4
REMARK VINA RESULT:    10.489      1.452      2.812
REMARK INTER + INTRA:          18.999
REMARK INTER:                  19.152
REMARK INTRA:                  -0.154
REMARK UNBOUND:                -0.687
REMARK SMILES CCCCCCCCC=CCCCCCCCC(=O)[O-]
REMARK SMILES IDX 10 1 9 2 11 3 12 4 13 5 14 6 15 7 16 8 17 9 18 10 19 11
REMARK SMILES IDX 20 12 8 13 7 14 6 15 5 16 4 17 3 18 2 19 1 20
REMARK H PARENT
REMARK Flexibility Score: inf
ROOT
ATOM      1  C   UNL     1      54.719 143.628  -0.806  1.00  0.00    -0.031 C 
ATOM      2  C   UNL     1      54.821 144.954  -1.015  1.00  0.00    -0.031 C 
ENDROOT
BRANCH   1   3
ATOM      3  C   UNL     1      55.583 142.586  -1.473  1.00  0.00     0.027 C 
BRANCH   3   4
ATOM      4  C   UNL     1      55.813 141.367  -0.566  1.00  0.00     0.004 C 
BRANCH   4   5
ATOM      5  C   UNL     1      54.841 140.220  -0.880  1.00  0.00     0.000 C 
BRANCH   5   6
ATOM      6  C   UNL     1      53.729 140.137   0.174  1.00  0.00     0.000 C 
BRANCH   6   7
ATOM      7  C   UNL     1      53.083 138.743   0.254  1.00  0.00     0.000 C 
BRANCH   7   8
ATOM      8  C   UNL     1      52.427 138.442   1.618  1.00  0.00     0.006 C 
BRANCH   8   9
ATOM      9  C   UNL     1      50.897 138.555   1.563  1.00  0.00     0.053 C 
BRANCH   9  10
ATOM     10  C   UNL     1      50.353 137.738   0.435  1.00  0.00     0.041 C 
ATOM     11  O   UNL     1      50.563 138.083  -0.757  1.00  0.00    -0.550 OA
ATOM     12  O   UNL     1      49.572 136.620   0.701  1.00  0.00    -0.550 OA
ENDBRANCH   9  10
ENDBRANCH   8   9
ENDBRANCH   7   8
ENDBRANCH   6   7
ENDBRANCH   5   6
ENDBRANCH   4   5
ENDBRANCH   3   4
ENDBRANCH   1   3
BRANCH   2  13
ATOM     13  C   UNL     1      55.875 145.607  -1.870  1.00  0.00     0.027 C 
BRANCH  13  14
ATOM     14  C   UNL     1      55.517 147.072  -2.150  1.00  0.00     0.004 C 
BRANCH  14  15
ATOM     15  C   UNL     1      54.041 147.346  -1.839  1.00  0.00     0.000 C 
BRANCH  15  16
ATOM     16  C   UNL     1      53.893 148.115  -0.517  1.00  0.00     0.000 C 
BRANCH  16  17
ATOM     17  C   UNL     1      52.462 148.062   0.043  1.00  0.00    -0.000 C 
BRANCH  17  18
ATOM     18  C   UNL     1      52.431 147.872   1.569  1.00  0.00    -0.000 C 
BRANCH  18  19
ATOM     19  C   UNL     1      51.001 147.831   2.129  1.00  0.00    -0.003 C 
ATOM     20  C   UNL     1      49.934 147.918   1.037  1.00  0.00     0.004 C 
ENDBRANCH  18  19
ENDBRANCH  17  18
ENDBRANCH  16  17
ENDBRANCH  15  16
ENDBRANCH  14  15
ENDBRANCH  13  14
ENDBRANCH   2  13
TORSDOF 15
ENDMDL
MODEL 5
REMARK VINA RESULT:    10.640      3.227      7.947
REMARK INTER + INTRA:          19.283
REMARK INTER:                  19.877
REMARK INTRA:                  -0.594
REMARK UNBOUND:                -0.687
REMARK SMILES CCCCCCCCC=CCCCCCCCC(=O)[O-]
REMARK SMILES IDX 10 1 9 2 11 3 12 4 13 5 14 6 15 7 16 8 17 9 18 10 19 11
REMARK SMILES IDX 20 12 8 13 7 14 6 15 5 16 4 17 3 18 2 19 1 20
REMARK H PARENT
REMARK Flexibility Score: inf
ROOT
ATOM      1  C   UNL     1      55.965 141.637  -0.963  1.00  0.00    -0.031 C 
ATOM      2  C   UNL     1      55.523 140.394  -0.691  1.00  0.00    -0.031 C 
ENDROOT
BRANCH   1   3
ATOM      3  C   UNL     1      55.076 142.811  -1.293  1.00  0.00     0.027 C 
BRANCH   3   4
ATOM      4  C   UNL     1      55.874 144.118  -1.412  1.00  0.00     0.004 C 
BRANCH   4   5
ATOM      5  C   UNL     1      54.990 145.298  -1.841  1.00  0.00     0.000 C 
BRANCH   5   6
ATOM      6  C   UNL     1      55.757 146.624  -1.745  1.00  0.00     0.000 C 
BRANCH   6   7
ATOM      7  C   UNL     1      54.831 147.853  -1.741  1.00  0.00     0.000 C 
BRANCH   7   8
ATOM      8  C   UNL     1      54.155 148.113  -0.378  1.00  0.00     0.006 C 
BRANCH   8   9
ATOM      9  C   UNL     1      52.624 148.116  -0.482  1.00  0.00     0.053 C 
BRANCH   9  10
ATOM     10  C   UNL     1      52.008 147.835   0.852  1.00  0.00     0.041 C 
ATOM     11  O   UNL     1      50.802 148.124   1.068  1.00  0.00    -0.550 OA
ATOM     12  O   UNL     1      52.781 147.296   1.874  1.00  0.00    -0.550 OA
ENDBRANCH   9  10
ENDBRANCH   8   9
ENDBRANCH   7   8
ENDBRANCH   6   7
ENDBRANCH   5   6
ENDBRANCH   4   5
ENDBRANCH   3   4
ENDBRANCH   1   3
BRANCH   2  13
ATOM     13  C   UNL     1      54.071 140.008  -0.580  1.00  0.00     0.027 C 
BRANCH  13  14
ATOM     14  C   UNL     1      53.369 140.840   0.500  1.00  0.00     0.004 C 
BRANCH  14  15
ATOM     15  C   UNL     1      52.059 140.178   0.940  1.00  0.00     0.000 C 
BRANCH  15  16
ATOM     16  C   UNL     1      52.335 138.944   1.813  1.00  0.00     0.000 C 
BRANCH  16  17
ATOM     17  C   UNL     1      51.673 137.669   1.265  1.00  0.00    -0.000 C 
BRANCH  17  18
ATOM     18  C   UNL     1      50.729 137.954   0.085  1.00  0.00    -0.000 C 
BRANCH  18  19
ATOM     19  C   UNL     1      49.306 137.427   0.329  1.00  0.00    -0.003 C 
ATOM     20  C   UNL     1      49.256 135.908   0.495  1.00  0.00     0.004 C 
ENDBRANCH  18  19
ENDBRANCH  17  18
ENDBRANCH  16  17
ENDBRANCH  15  16
ENDBRANCH  14  15
ENDBRANCH  13  14
ENDBRANCH   2  13
TORSDOF 15
ENDMDL
MODEL 6
REMARK VINA RESULT:    10.661      1.522      2.180
REMARK INTER + INTRA:          19.321
REMARK INTER:                  17.996
REMARK INTRA:                   1.326
REMARK UNBOUND:                -0.687
REMARK SMILES CCCCCCCCC=CCCCCCCCC(=O)[O-]
REMARK SMILES IDX 10 1 9 2 11 3 12 4 13 5 14 6 15 7 16 8 17 9 18 10 19 11
REMARK SMILES IDX 20 12 8 13 7 14 6 15 5 16 4 17 3 18 2 19 1 20
REMARK H PARENT
REMARK Flexibility Score: inf
ROOT
ATOM      1  C   UNL     1      53.474 144.584  -0.215  1.00  0.00    -0.031 C 
ATOM      2  C   UNL     1      53.288 145.909  -0.066  1.00  0.00    -0.031 C 
ENDROOT
BRANCH   1   3
ATOM      3  C   UNL     1      53.274 143.562   0.877  1.00  0.00     0.027 C 
BRANCH   3   4
ATOM      4  C   UNL     1      53.988 142.239   0.561  1.00  0.00     0.004 C 
BRANCH   4   5
ATOM      5  C   UNL     1      55.025 142.394  -0.560  1.00  0.00     0.000 C 
BRANCH   5   6
ATOM      6  C   UNL     1      55.609 141.033  -0.963  1.00  0.00     0.000 C 
BRANCH   6   7
ATOM      7  C   UNL     1      54.612 139.876  -0.778  1.00  0.00     0.000 C 
BRANCH   7   8
ATOM      8  C   UNL     1      53.581 140.121   0.345  1.00  0.00     0.006 C 
BRANCH   8   9
ATOM      9  C   UNL     1      52.486 139.047   0.370  1.00  0.00     0.053 C 
BRANCH   9  10
ATOM     10  C   UNL     1      52.237 138.586   1.771  1.00  0.00     0.041 C 
ATOM     11  O   UNL     1      53.049 137.807   2.336  1.00  0.00    -0.550 OA
ATOM     12  O   UNL     1      51.083 138.979   2.437  1.00  0.00    -0.550 OA
ENDBRANCH   9  10
ENDBRANCH   8   9
ENDBRANCH   7   8
ENDBRANCH   6   7
ENDBRANCH   5   6
ENDBRANCH   4   5
ENDBRANCH   3   4
ENDBRANCH   1   3
BRANCH   2  13
ATOM     13  C   UNL     1      52.757 146.564   1.183  1.00  0.00     0.027 C 
BRANCH  13  14
ATOM     14  C   UNL     1      51.726 147.644   0.834  1.00  0.00     0.004 C 
BRANCH  14  15
ATOM     15  C   UNL     1      50.810 147.937   2.028  1.00  0.00     0.000 C 
BRANCH  15  16
ATOM     16  C   UNL     1      49.351 147.585   1.699  1.00  0.00     0.000 C 
BRANCH  16  17
ATOM     17  C   UNL     1      48.905 148.124   0.330  1.00  0.00    -0.000 C 
BRANCH  17  18
ATOM     18  C   UNL     1      47.603 147.471  -0.166  1.00  0.00    -0.000 C 
BRANCH  18  19
ATOM     19  C   UNL     1      47.160 148.009  -1.535  1.00  0.00    -0.003 C 
ATOM     20  C   UNL     1      48.219 147.812  -2.621  1.00  0.00     0.004 C 
ENDBRANCH  18  19
ENDBRANCH  17  18
ENDBRANCH  16  17
ENDBRANCH  15  16
ENDBRANCH  14  15
ENDBRANCH  13  14
ENDBRANCH   2  13
TORSDOF 15
ENDMDL
MODEL 7
REMARK VINA RESULT:    10.831      4.629      8.616
REMARK INTER + INTRA:          19.641
REMARK INTER:                  20.460
REMARK INTRA:                  -0.820
REMARK UNBOUND:                -0.687
REMARK SMILES CCCCCCCCC=CCCCCCCCC(=O)[O-]
REMARK SMILES IDX 10 1 9 2 11 3 12 4 13 5 14 6 15 7 16 8 17 9 18 10 19 11
REMARK SMILES IDX 20 12 8 13 7 14 6 15 5 16 4 17 3 18 2 19 1 20
REMARK H PARENT
REMARK Flexibility Score: inf
ROOT
ATOM      1  C   UNL     1      56.150 143.258  -1.355  1.00  0.00    -0.031 C 
ATOM      2  C   UNL     1      55.909 142.011  -0.907  1.00  0.00    -0.031 C 
ENDROOT
BRANCH   1   3
ATOM      3  C   UNL     1      55.121 144.360  -1.422  1.00  0.00     0.027 C 
BRANCH   3   4
ATOM      4  C   UNL     1      55.771 145.742  -1.585  1.00  0.00     0.004 C 
BRANCH   4   5
ATOM      5  C   UNL     1      54.885 146.867  -1.030  1.00  0.00     0.000 C 
BRANCH   5   6
ATOM      6  C   UNL     1      54.558 147.898  -2.119  1.00  0.00     0.000 C 
BRANCH   6   7
ATOM      7  C   UNL     1      53.047 148.124  -2.295  1.00  0.00     0.000 C 
BRANCH   7   8
ATOM      8  C   UNL     1      52.589 148.125  -3.769  1.00  0.00     0.006 C 
BRANCH   8   9
ATOM      9  C   UNL     1      53.763 147.951  -4.741  1.00  0.00     0.053 C 
BRANCH   9  10
ATOM     10  C   UNL     1      53.262 147.705  -6.128  1.00  0.00     0.041 C 
ATOM     11  O   UNL     1      53.983 147.983  -7.122  1.00  0.00    -0.550 OA
ATOM     12  O   UNL     1      51.978 147.212  -6.326  1.00  0.00    -0.550 OA
ENDBRANCH   9  10
ENDBRANCH   8   9
ENDBRANCH   7   8
ENDBRANCH   6   7
ENDBRANCH   5   6
ENDBRANCH   4   5
ENDBRANCH   3   4
ENDBRANCH   1   3
BRANCH   2  13
ATOM     13  C   UNL     1      54.602 141.553  -0.314  1.00  0.00     0.027 C 
BRANCH  13  14
ATOM     14  C   UNL     1      54.620 140.040  -0.064  1.00  0.00     0.004 C 
BRANCH  14  15
ATOM     15  C   UNL     1      53.242 139.422  -0.326  1.00  0.00     0.000 C 
BRANCH  15  16
ATOM     16  C   UNL     1      52.198 139.973   0.657  1.00  0.00     0.000 C 
BRANCH  16  17
ATOM     17  C   UNL     1      51.308 138.872   1.257  1.00  0.00    -0.000 C 
BRANCH  17  18
ATOM     18  C   UNL     1      51.733 137.462   0.814  1.00  0.00    -0.000 C 
BRANCH  18  19
ATOM     19  C   UNL     1      50.599 136.698   0.114  1.00  0.00    -0.003 C 
ATOM     20  C   UNL     1      49.262 136.818   0.845  1.00  0.00     0.004 C 
ENDBRANCH  18  19
ENDBRANCH  17  18
ENDBRANCH  16  17
ENDBRANCH  15  16
ENDBRANCH  14  15
ENDBRANCH  13  14
ENDBRANCH   2  13
TORSDOF 15
ENDMDL
MODEL 8
REMARK VINA RESULT:    10.940      3.603      7.794
REMARK INTER + INTRA:          19.846
REMARK INTER:                  20.353
REMARK INTRA:                  -0.506
REMARK UNBOUND:                -0.687
REMARK SMILES CCCCCCCCC=CCCCCCCCC(=O)[O-]
REMARK SMILES IDX 10 1 9 2 11 3 12 4 13 5 14 6 15 7 16 8 17 9 18 10 19 11
REMARK SMILES IDX 20 12 8 13 7 14 6 15 5 16 4 17 3 18 2 19 1 20
REMARK H PARENT
REMARK Flexibility Score: inf
ROOT
ATOM      1  C   UNL     1      55.097 144.944  -1.628  1.00  0.00    -0.031 C 
ATOM      2  C   UNL     1      55.371 143.629  -1.715  1.00  0.00    -0.031 C 
ENDROOT
BRANCH   1   3
ATOM      3  C   UNL     1      54.237 145.573  -0.559  1.00  0.00     0.027 C 
BRANCH   3   4
ATOM      4  C   UNL     1      54.358 147.105  -0.554  1.00  0.00     0.004 C 
BRANCH   4   5
ATOM      5  C   UNL     1      53.840 147.730  -1.857  1.00  0.00     0.000 C 
BRANCH   5   6
ATOM      6  C   UNL     1      52.314 147.893  -1.821  1.00  0.00     0.000 C 
BRANCH   6   7
ATOM      7  C   UNL     1      51.716 147.629  -0.428  1.00  0.00     0.000 C 
BRANCH   7   8
ATOM      8  C   UNL     1      50.185 147.811  -0.367  1.00  0.00     0.006 C 
BRANCH   8   9
ATOM      9  C   UNL     1      49.583 148.125  -1.743  1.00  0.00     0.053 C 
BRANCH   9  10
ATOM     10  C   UNL     1      48.210 147.544  -1.859  1.00  0.00     0.041 C 
ATOM     11  O   UNL     1      47.871 146.918  -2.898  1.00  0.00    -0.550 OA
ATOM     12  O   UNL     1      47.287 147.734  -0.838  1.00  0.00    -0.550 OA
ENDBRANCH   9  10
ENDBRANCH   8   9
ENDBRANCH   7   8
ENDBRANCH   6   7
ENDBRANCH   5   6
ENDBRANCH   4   5
ENDBRANCH   3   4
ENDBRANCH   1   3
BRANCH   2  13
ATOM     13  C   UNL     1      54.942 142.597  -0.704  1.00  0.00     0.027 C 
BRANCH  13  14
ATOM     14  C   UNL     1      55.811 141.338  -0.811  1.00  0.00     0.004 C 
BRANCH  14  15
ATOM     15  C   UNL     1      54.965 140.070  -0.644  1.00  0.00     0.000 C 
BRANCH  15  16
ATOM     16  C   UNL     1      53.707 140.356   0.191  1.00  0.00     0.000 C 
BRANCH  16  17
ATOM     17  C   UNL     1      52.648 139.249   0.066  1.00  0.00    -0.000 C 
BRANCH  17  18
ATOM     18  C   UNL     1      52.675 138.269   1.252  1.00  0.00    -0.000 C 
BRANCH  18  19
ATOM     19  C   UNL     1      52.025 138.855   2.514  1.00  0.00    -0.003 C 
ATOM     20  C   UNL     1      51.053 139.995   2.207  1.00  0.00     0.004 C 
ENDBRANCH  18  19
ENDBRANCH  17  18
ENDBRANCH  16  17
ENDBRANCH  15  16
ENDBRANCH  14  15
ENDBRANCH  13  14
ENDBRANCH   2  13
TORSDOF 15
ENDMDL
