MODEL 1
REMARK VINA RESULT:    -5.870      0.000      0.000
REMARK INTER + INTRA:         -13.580
REMARK INTER:                 -11.361
REMARK INTRA:                  -2.218
REMARK UNBOUND:                -2.218
REMARK SMILES CCCCCCCCCCCCCCCCCC(=O)[O-]
REMARK SMILES IDX 10 1 11 2 12 3 13 4 14 5 15 6 16 7 17 8 18 9 19 10 20 11
REMARK SMILES IDX 9 12 8 13 7 14 6 15 5 16 4 17 3 18 2 19 1 20
REMARK H PARENT
REMARK Flexibility Score: inf
ROOT
ATOM      1  C   UNL     1       7.556 -10.233  -2.488  1.00  0.00     0.000 C 
ENDROOT
BRANCH   1   2
ATOM      2  C   UNL     1       6.513 -10.609  -1.424  1.00  0.00     0.000 C 
BRANCH   2   3
ATOM      3  C   UNL     1       6.305 -12.129  -1.299  1.00  0.00     0.000 C 
BRANCH   3   4
ATOM      4  C   UNL     1       6.877 -12.766  -0.016  1.00  0.00     0.000 C 
BRANCH   4   5
ATOM      5  C   UNL     1       8.410 -12.933   0.008  1.00  0.00     0.000 C 
BRANCH   5   6
ATOM      6  C   UNL     1       8.922 -14.302  -0.476  1.00  0.00     0.000 C 
BRANCH   6   7
ATOM      7  C   UNL     1      10.455 -14.400  -0.473  1.00  0.00     0.006 C 
BRANCH   7   8
ATOM      8  C   UNL     1      11.086 -13.104  -0.990  1.00  0.00     0.053 C 
BRANCH   8   9
ATOM      9  C   UNL     1      11.913 -12.461   0.080  1.00  0.00     0.041 C 
ATOM     10  O   UNL     1      12.795 -11.615  -0.222  1.00  0.00    -0.550 OA
ATOM     11  O   UNL     1      11.682 -12.767   1.416  1.00  0.00    -0.550 OA
ENDBRANCH   8   9
ENDBRANCH   7   8
ENDBRANCH   6   7
ENDBRANCH   5   6
ENDBRANCH   4   5
ENDBRANCH   3   4
ENDBRANCH   2   3
ENDBRANCH   1   2
BRANCH   1  12
ATOM     12  C   UNL     1       7.629 -11.255  -3.635  1.00  0.00     0.000 C 
BRANCH  12  13
ATOM     13  C   UNL     1       9.054 -11.789  -3.897  1.00  0.00    -0.000 C 
BRANCH  13  14
ATOM     14  C   UNL     1       9.065 -13.307  -4.150  1.00  0.00    -0.000 C 
BRANCH  14  15
ATOM     15  C   UNL     1       9.535 -13.672  -5.567  1.00  0.00    -0.000 C 
BRANCH  15  16
ATOM     16  C   UNL     1       8.983 -12.716  -6.639  1.00  0.00    -0.000 C 
BRANCH  16  17
ATOM     17  C   UNL     1      10.087 -12.129  -7.533  1.00  0.00    -0.000 C 
BRANCH  17  18
ATOM     18  C   UNL     1      11.499 -12.442  -7.009  1.00  0.00    -0.000 C 
BRANCH  18  19
ATOM     19  C   UNL     1      12.071 -11.307  -6.144  1.00  0.00    -0.003 C 
ATOM     20  C   UNL     1      12.870 -11.818  -4.945  1.00  0.00     0.004 C 
ENDBRANCH  18  19
ENDBRANCH  17  18
ENDBRANCH  16  17
ENDBRANCH  15  16
ENDBRANCH  14  15
ENDBRANCH  13  14
ENDBRANCH  12  13
ENDBRANCH   1  12
TORSDOF 16
ENDMDL
MODEL 2
REMARK VINA RESULT:    -5.862      2.685      6.109
REMARK INTER + INTRA:         -13.564
REMARK INTER:                 -11.300
REMARK INTRA:                  -2.264
REMARK UNBOUND:                -2.218
REMARK SMILES CCCCCCCCCCCCCCCCCC(=O)[O-]
REMARK SMILES IDX 10 1 11 2 12 3 13 4 14 5 15 6 16 7 17 8 18 9 19 10 20 11
REMARK SMILES IDX 9 12 8 13 7 14 6 15 5 16 4 17 3 18 2 19 1 20
REMARK H PARENT
REMARK Flexibility Score: inf
ROOT
ATOM      1  C   UNL     1       8.349 -12.020  -5.964  1.00  0.00     0.000 C 
ENDROOT
BRANCH   1   2
ATOM      2  C   UNL     1       9.054 -12.765  -7.108  1.00  0.00     0.000 C 
BRANCH   2   3
ATOM      3  C   UNL     1      10.292 -12.017  -7.636  1.00  0.00     0.000 C 
BRANCH   3   4
ATOM      4  C   UNL     1      11.629 -12.416  -6.980  1.00  0.00     0.000 C 
BRANCH   4   5
ATOM      5  C   UNL     1      12.047 -11.561  -5.767  1.00  0.00     0.000 C 
BRANCH   5   6
ATOM      6  C   UNL     1      12.738 -12.338  -4.632  1.00  0.00     0.000 C 
BRANCH   6   7
ATOM      7  C   UNL     1      11.843 -13.430  -4.027  1.00  0.00     0.006 C 
BRANCH   7   8
ATOM      8  C   UNL     1      12.504 -14.807  -4.147  1.00  0.00     0.053 C 
BRANCH   8   9
ATOM      9  C   UNL     1      11.830 -15.622  -5.205  1.00  0.00     0.041 C 
ATOM     10  O   UNL     1      12.484 -16.473  -5.863  1.00  0.00    -0.550 OA
ATOM     11  O   UNL     1      10.469 -15.470  -5.440  1.00  0.00    -0.550 OA
ENDBRANCH   8   9
ENDBRANCH   7   8
ENDBRANCH   6   7
ENDBRANCH   5   6
ENDBRANCH   4   5
ENDBRANCH   3   4
ENDBRANCH   2   3
ENDBRANCH   1   2
BRANCH   1  12
ATOM     12  C   UNL     1       8.643 -12.636  -4.585  1.00  0.00     0.000 C 
BRANCH  12  13
ATOM     13  C   UNL     1       8.693 -11.597  -3.443  1.00  0.00    -0.000 C 
BRANCH  13  14
ATOM     14  C   UNL     1       7.351 -10.865  -3.267  1.00  0.00    -0.000 C 
BRANCH  14  15
ATOM     15  C   UNL     1       6.876 -10.832  -1.806  1.00  0.00    -0.000 C 
BRANCH  15  16
ATOM     16  C   UNL     1       6.290 -12.177  -1.343  1.00  0.00    -0.000 C 
BRANCH  16  17
ATOM     17  C   UNL     1       6.979 -12.720  -0.080  1.00  0.00    -0.000 C 
BRANCH  17  18
ATOM     18  C   UNL     1       8.090 -13.734  -0.404  1.00  0.00    -0.000 C 
BRANCH  18  19
ATOM     19  C   UNL     1       7.591 -14.892  -1.284  1.00  0.00    -0.003 C 
ATOM     20  C   UNL     1       8.683 -15.461  -2.190  1.00  0.00     0.004 C 
ENDBRANCH  18  19
ENDBRANCH  17  18
ENDBRANCH  16  17
ENDBRANCH  15  16
ENDBRANCH  14  15
ENDBRANCH  13  14
ENDBRANCH  12  13
ENDBRANCH   1  12
TORSDOF 16
ENDMDL
MODEL 3
REMARK VINA RESULT:    -5.817      2.135      5.303
REMARK INTER + INTRA:         -13.476
REMARK INTER:                 -11.628
REMARK INTRA:                  -1.848
REMARK UNBOUND:                -2.218
REMARK SMILES CCCCCCCCCCCCCCCCCC(=O)[O-]
REMARK SMILES IDX 10 1 11 2 12 3 13 4 14 5 15 6 16 7 17 8 18 9 19 10 20 11
REMARK SMILES IDX 9 12 8 13 7 14 6 15 5 16 4 17 3 18 2 19 1 20
REMARK H PARENT
REMARK Flexibility Score: inf
ROOT
ATOM      1  C   UNL     1      11.586 -12.334  -7.007  1.00  0.00     0.000 C 
ENDROOT
BRANCH   1   2
ATOM      2  C   UNL     1      11.983 -11.217  -6.030  1.00  0.00     0.000 C 
BRANCH   2   3
ATOM      3  C   UNL     1      13.106 -11.637  -5.064  1.00  0.00     0.000 C 
BRANCH   3   4
ATOM      4  C   UNL     1      12.821 -12.909  -4.240  1.00  0.00     0.000 C 
BRANCH   4   5
ATOM      5  C   UNL     1      12.819 -12.714  -2.710  1.00  0.00     0.000 C 
BRANCH   5   6
ATOM      6  C   UNL     1      12.166 -13.856  -1.911  1.00  0.00     0.000 C 
BRANCH   6   7
ATOM      7  C   UNL     1      13.138 -14.531  -0.932  1.00  0.00     0.006 C 
BRANCH   7   8
ATOM      8  C   UNL     1      14.353 -13.637  -0.664  1.00  0.00     0.053 C 
BRANCH   8   9
ATOM      9  C   UNL     1      15.606 -14.454  -0.629  1.00  0.00     0.041 C 
ATOM     10  O   UNL     1      15.557 -15.681  -0.350  1.00  0.00    -0.550 OA
ATOM     11  O   UNL     1      16.827 -13.869  -0.943  1.00  0.00    -0.550 OA
ENDBRANCH   8   9
ENDBRANCH   7   8
ENDBRANCH   6   7
ENDBRANCH   5   6
ENDBRANCH   4   5
ENDBRANCH   3   4
ENDBRANCH   2   3
ENDBRANCH   1   2
BRANCH   1  12
ATOM     12  C   UNL     1      10.206 -12.100  -7.646  1.00  0.00     0.000 C 
BRANCH  12  13
ATOM     13  C   UNL     1       9.032 -12.624  -6.791  1.00  0.00    -0.000 C 
BRANCH  13  14
ATOM     14  C   UNL     1       9.474 -13.731  -5.818  1.00  0.00    -0.000 C 
BRANCH  14  15
ATOM     15  C   UNL     1       9.242 -13.360  -4.345  1.00  0.00    -0.000 C 
BRANCH  15  16
ATOM     16  C   UNL     1       8.713 -11.925  -4.172  1.00  0.00    -0.000 C 
BRANCH  16  17
ATOM     17  C   UNL     1       8.677 -11.481  -2.701  1.00  0.00    -0.000 C 
BRANCH  17  18
ATOM     18  C   UNL     1       7.478 -10.570  -2.388  1.00  0.00    -0.000 C 
BRANCH  18  19
ATOM     19  C   UNL     1       6.707 -11.019  -1.137  1.00  0.00    -0.003 C 
ATOM     20  C   UNL     1       6.318 -12.497  -1.179  1.00  0.00     0.004 C 
ENDBRANCH  18  19
ENDBRANCH  17  18
ENDBRANCH  16  17
ENDBRANCH  15  16
ENDBRANCH  14  15
ENDBRANCH  13  14
ENDBRANCH  12  13
ENDBRANCH   1  12
TORSDOF 16
ENDMDL
MODEL 4
REMARK VINA RESULT:    -5.797      1.721      5.555
REMARK INTER + INTRA:         -13.438
REMARK INTER:                 -11.318
REMARK INTRA:                  -2.120
REMARK UNBOUND:                -2.218
REMARK SMILES CCCCCCCCCCCCCCCCCC(=O)[O-]
REMARK SMILES IDX 10 1 11 2 12 3 13 4 14 5 15 6 16 7 17 8 18 9 19 10 20 11
REMARK SMILES IDX 9 12 8 13 7 14 6 15 5 16 4 17 3 18 2 19 1 20
REMARK H PARENT
REMARK Flexibility Score: inf
ROOT
ATOM      1  C   UNL     1      10.032 -12.117  -7.535  1.00  0.00     0.000 C 
ENDROOT
BRANCH   1   2
ATOM      2  C   UNL     1      11.431 -12.436  -6.986  1.00  0.00     0.000 C 
BRANCH   2   3
ATOM      3  C   UNL     1      12.065 -11.251  -6.236  1.00  0.00     0.000 C 
BRANCH   3   4
ATOM      4  C   UNL     1      13.114 -11.633  -5.172  1.00  0.00     0.000 C 
BRANCH   4   5
ATOM      5  C   UNL     1      12.733 -12.828  -4.273  1.00  0.00     0.000 C 
BRANCH   5   6
ATOM      6  C   UNL     1      12.467 -12.472  -2.799  1.00  0.00     0.000 C 
BRANCH   6   7
ATOM      7  C   UNL     1      12.695 -13.658  -1.850  1.00  0.00     0.006 C 
BRANCH   7   8
ATOM      8  C   UNL     1      11.557 -14.676  -1.966  1.00  0.00     0.053 C 
BRANCH   8   9
ATOM      9  C   UNL     1      11.689 -15.732  -0.913  1.00  0.00     0.041 C 
ATOM     10  O   UNL     1      11.052 -16.813  -1.015  1.00  0.00    -0.550 OA
ATOM     11  O   UNL     1      12.548 -15.538   0.163  1.00  0.00    -0.550 OA
ENDBRANCH   8   9
ENDBRANCH   7   8
ENDBRANCH   6   7
ENDBRANCH   5   6
ENDBRANCH   4   5
ENDBRANCH   3   4
ENDBRANCH   2   3
ENDBRANCH   1   2
BRANCH   1  12
ATOM     12  C   UNL     1       8.907 -12.748  -6.695  1.00  0.00     0.000 C 
BRANCH  12  13
ATOM     13  C   UNL     1       9.415 -13.760  -5.645  1.00  0.00    -0.000 C 
BRANCH  13  14
ATOM     14  C   UNL     1       9.034 -13.348  -4.213  1.00  0.00    -0.000 C 
BRANCH  14  15
ATOM     15  C   UNL     1       9.033 -11.824  -4.011  1.00  0.00    -0.000 C 
BRANCH  15  16
ATOM     16  C   UNL     1       8.767 -11.421  -2.550  1.00  0.00    -0.000 C 
BRANCH  16  17
ATOM     17  C   UNL     1       7.938 -10.131  -2.434  1.00  0.00    -0.000 C 
BRANCH  17  18
ATOM     18  C   UNL     1       6.605 -10.350  -1.698  1.00  0.00    -0.000 C 
BRANCH  18  19
ATOM     19  C   UNL     1       6.670 -11.513  -0.695  1.00  0.00    -0.003 C 
ATOM     20  C   UNL     1       5.426 -11.606   0.188  1.00  0.00     0.004 C 
ENDBRANCH  18  19
ENDBRANCH  17  18
ENDBRANCH  16  17
ENDBRANCH  15  16
ENDBRANCH  14  15
ENDBRANCH  13  14
ENDBRANCH  12  13
ENDBRANCH   1  12
TORSDOF 16
ENDMDL
MODEL 5
REMARK VINA RESULT:    -5.764      1.588      5.539
REMARK INTER + INTRA:         -13.374
REMARK INTER:                 -10.859
REMARK INTRA:                  -2.515
REMARK UNBOUND:                -2.218
REMARK SMILES CCCCCCCCCCCCCCCCCC(=O)[O-]
REMARK SMILES IDX 10 1 11 2 12 3 13 4 14 5 15 6 16 7 17 8 18 9 19 10 20 11
REMARK SMILES IDX 9 12 8 13 7 14 6 15 5 16 4 17 3 18 2 19 1 20
REMARK H PARENT
REMARK Flexibility Score: inf
ROOT
ATOM      1  C   UNL     1       9.012 -12.666  -6.848  1.00  0.00     0.000 C 
ENDROOT
BRANCH   1   2
ATOM      2  C   UNL     1      10.175 -12.059  -7.648  1.00  0.00     0.000 C 
BRANCH   2   3
ATOM      3  C   UNL     1      11.548 -12.322  -7.003  1.00  0.00     0.000 C 
BRANCH   3   4
ATOM      4  C   UNL     1      12.018 -11.251  -5.999  1.00  0.00     0.000 C 
BRANCH   4   5
ATOM      5  C   UNL     1      13.165 -11.686  -5.064  1.00  0.00     0.000 C 
BRANCH   5   6
ATOM      6  C   UNL     1      12.841 -12.881  -4.149  1.00  0.00     0.000 C 
BRANCH   6   7
ATOM      7  C   UNL     1      12.420 -12.452  -2.736  1.00  0.00     0.006 C 
BRANCH   7   8
ATOM      8  C   UNL     1      12.181 -13.674  -1.843  1.00  0.00     0.053 C 
BRANCH   8   9
ATOM      9  C   UNL     1      13.482 -14.314  -1.473  1.00  0.00     0.041 C 
ATOM     10  O   UNL     1      13.567 -15.566  -1.374  1.00  0.00    -0.550 OA
ATOM     11  O   UNL     1      14.614 -13.531  -1.277  1.00  0.00    -0.550 OA
ENDBRANCH   8   9
ENDBRANCH   7   8
ENDBRANCH   6   7
ENDBRANCH   5   6
ENDBRANCH   4   5
ENDBRANCH   3   4
ENDBRANCH   2   3
ENDBRANCH   1   2
BRANCH   1  12
ATOM     12  C   UNL     1       9.476 -13.742  -5.850  1.00  0.00     0.000 C 
BRANCH  12  13
ATOM     13  C   UNL     1       9.206 -13.373  -4.375  1.00  0.00    -0.000 C 
BRANCH  13  14
ATOM     14  C   UNL     1       8.492 -12.017  -4.239  1.00  0.00    -0.000 C 
BRANCH  14  15
ATOM     15  C   UNL     1       8.763 -11.331  -2.891  1.00  0.00    -0.000 C 
BRANCH  15  16
ATOM     16  C   UNL     1       7.470 -10.950  -2.149  1.00  0.00    -0.000 C 
BRANCH  16  17
ATOM     17  C   UNL     1       7.353 -11.632  -0.776  1.00  0.00    -0.000 C 
BRANCH  17  18
ATOM     18  C   UNL     1       8.591 -12.478  -0.430  1.00  0.00    -0.000 C 
BRANCH  18  19
ATOM     19  C   UNL     1       8.236 -13.942  -0.124  1.00  0.00    -0.003 C 
ATOM     20  C   UNL     1       7.634 -14.669  -1.326  1.00  0.00     0.004 C 
ENDBRANCH  18  19
ENDBRANCH  17  18
ENDBRANCH  16  17
ENDBRANCH  15  16
ENDBRANCH  14  15
ENDBRANCH  13  14
ENDBRANCH  12  13
ENDBRANCH   1  12
TORSDOF 16
ENDMDL
MODEL 6
REMARK VINA RESULT:    -5.724      2.990      3.299
REMARK INTER + INTRA:         -13.296
REMARK INTER:                 -11.201
REMARK INTRA:                  -2.094
REMARK UNBOUND:                -2.218
REMARK SMILES CCCCCCCCCCCCCCCCCC(=O)[O-]
REMARK SMILES IDX 10 1 11 2 12 3 13 4 14 5 15 6 16 7 17 8 18 9 19 10 20 11
REMARK SMILES IDX 9 12 8 13 7 14 6 15 5 16 4 17 3 18 2 19 1 20
REMARK H PARENT
REMARK Flexibility Score: inf
ROOT
ATOM      1  C   UNL     1       8.007 -10.601  -2.354  1.00  0.00     0.000 C 
ENDROOT
BRANCH   1   2
ATOM      2  C   UNL     1       7.390 -11.293  -1.129  1.00  0.00     0.000 C 
BRANCH   2   3
ATOM      3  C   UNL     1       6.822 -12.687  -1.451  1.00  0.00     0.000 C 
BRANCH   3   4
ATOM      4  C   UNL     1       7.346 -13.831  -0.561  1.00  0.00     0.000 C 
BRANCH   4   5
ATOM      5  C   UNL     1       8.739 -14.375  -0.941  1.00  0.00     0.000 C 
BRANCH   5   6
ATOM      6  C   UNL     1       8.752 -15.827  -1.452  1.00  0.00     0.000 C 
BRANCH   6   7
ATOM      7  C   UNL     1      10.157 -16.308  -1.844  1.00  0.00     0.006 C 
BRANCH   7   8
ATOM      8  C   UNL     1      10.130 -17.777  -2.277  1.00  0.00     0.053 C 
BRANCH   8   9
ATOM      9  C   UNL     1      10.063 -17.883  -3.768  1.00  0.00     0.041 C 
ATOM     10  O   UNL     1      10.711 -17.080  -4.490  1.00  0.00    -0.550 OA
ATOM     11  O   UNL     1       9.316 -18.893  -4.362  1.00  0.00    -0.550 OA
ENDBRANCH   8   9
ENDBRANCH   7   8
ENDBRANCH   6   7
ENDBRANCH   5   6
ENDBRANCH   4   5
ENDBRANCH   3   4
ENDBRANCH   2   3
ENDBRANCH   1   2
BRANCH   1  12
ATOM     12  C   UNL     1       7.945 -11.471  -3.622  1.00  0.00     0.000 C 
BRANCH  12  13
ATOM     13  C   UNL     1       9.304 -12.093  -4.011  1.00  0.00    -0.000 C 
BRANCH  13  14
ATOM     14  C   UNL     1       9.168 -13.569  -4.423  1.00  0.00    -0.000 C 
BRANCH  14  15
ATOM     15  C   UNL     1       9.633 -13.832  -5.864  1.00  0.00    -0.000 C 
BRANCH  15  16
ATOM     16  C   UNL     1       9.092 -12.792  -6.860  1.00  0.00    -0.000 C 
BRANCH  16  17
ATOM     17  C   UNL     1      10.211 -12.059  -7.618  1.00  0.00    -0.000 C 
BRANCH  17  18
ATOM     18  C   UNL     1      11.609 -12.385  -7.063  1.00  0.00    -0.000 C 
BRANCH  18  19
ATOM     19  C   UNL     1      12.176 -11.252  -6.193  1.00  0.00    -0.003 C 
ATOM     20  C   UNL     1      12.973 -11.767  -4.994  1.00  0.00     0.004 C 
ENDBRANCH  18  19
ENDBRANCH  17  18
ENDBRANCH  16  17
ENDBRANCH  15  16
ENDBRANCH  14  15
ENDBRANCH  13  14
ENDBRANCH  12  13
ENDBRANCH   1  12
TORSDOF 16
ENDMDL
MODEL 7
REMARK VINA RESULT:    -5.714      1.588      3.843
REMARK INTER + INTRA:         -13.277
REMARK INTER:                 -10.758
REMARK INTRA:                  -2.520
REMARK UNBOUND:                -2.218
REMARK SMILES CCCCCCCCCCCCCCCCCC(=O)[O-]
REMARK SMILES IDX 10 1 11 2 12 3 13 4 14 5 15 6 16 7 17 8 18 9 19 10 20 11
REMARK SMILES IDX 9 12 8 13 7 14 6 15 5 16 4 17 3 18 2 19 1 20
REMARK H PARENT
REMARK Flexibility Score: inf
ROOT
ATOM      1  C   UNL     1       9.239 -13.021  -5.794  1.00  0.00     0.000 C 
ENDROOT
BRANCH   1   2
ATOM      2  C   UNL     1       8.503 -12.011  -4.900  1.00  0.00     0.000 C 
BRANCH   2   3
ATOM      3  C   UNL     1       8.897 -12.126  -3.416  1.00  0.00     0.000 C 
BRANCH   3   4
ATOM      4  C   UNL     1       8.289 -11.054  -2.490  1.00  0.00     0.000 C 
BRANCH   4   5
ATOM      5  C   UNL     1       6.826 -11.303  -2.068  1.00  0.00     0.000 C 
BRANCH   5   6
ATOM      6  C   UNL     1       6.576 -12.644  -1.356  1.00  0.00     0.000 C 
BRANCH   6   7
ATOM      7  C   UNL     1       7.167 -12.686   0.061  1.00  0.00     0.006 C 
BRANCH   7   8
ATOM      8  C   UNL     1       8.228 -13.785   0.178  1.00  0.00     0.053 C 
BRANCH   8   9
ATOM      9  C   UNL     1       9.558 -13.193   0.523  1.00  0.00     0.041 C 
ATOM     10  O   UNL     1      10.410 -12.978  -0.379  1.00  0.00    -0.550 OA
ATOM     11  O   UNL     1       9.845 -12.840   1.836  1.00  0.00    -0.550 OA
ENDBRANCH   8   9
ENDBRANCH   7   8
ENDBRANCH   6   7
ENDBRANCH   5   6
ENDBRANCH   4   5
ENDBRANCH   3   4
ENDBRANCH   2   3
ENDBRANCH   1   2
BRANCH   1  12
ATOM     12  C   UNL     1       9.876 -12.364  -7.031  1.00  0.00     0.000 C 
BRANCH  12  13
ATOM     13  C   UNL     1      11.419 -12.332  -6.987  1.00  0.00    -0.000 C 
BRANCH  13  14
ATOM     14  C   UNL     1      11.947 -11.340  -5.937  1.00  0.00    -0.000 C 
BRANCH  14  15
ATOM     15  C   UNL     1      13.050 -11.940  -5.050  1.00  0.00    -0.000 C 
BRANCH  15  16
ATOM     16  C   UNL     1      12.499 -12.539  -3.744  1.00  0.00    -0.000 C 
BRANCH  16  17
ATOM     17  C   UNL     1      12.778 -14.046  -3.621  1.00  0.00    -0.000 C 
BRANCH  17  18
ATOM     18  C   UNL     1      11.554 -14.834  -3.124  1.00  0.00    -0.000 C 
BRANCH  18  19
ATOM     19  C   UNL     1      10.959 -15.744  -4.210  1.00  0.00    -0.003 C 
ATOM     20  C   UNL     1      11.786 -15.750  -5.497  1.00  0.00     0.004 C 
ENDBRANCH  18  19
ENDBRANCH  17  18
ENDBRANCH  16  17
ENDBRANCH  15  16
ENDBRANCH  14  15
ENDBRANCH  13  14
ENDBRANCH  12  13
ENDBRANCH   1  12
TORSDOF 16
ENDMDL
MODEL 8
REMARK VINA RESULT:    -5.700      2.877      6.128
REMARK INTER + INTRA:         -13.249
REMARK INTER:                 -11.277
REMARK INTRA:                  -1.973
REMARK UNBOUND:                -2.218
REMARK SMILES CCCCCCCCCCCCCCCCCC(=O)[O-]
REMARK SMILES IDX 10 1 11 2 12 3 13 4 14 5 15 6 16 7 17 8 18 9 19 10 20 11
REMARK SMILES IDX 9 12 8 13 7 14 6 15 5 16 4 17 3 18 2 19 1 20
REMARK H PARENT
REMARK Flexibility Score: inf
ROOT
ATOM      1  C   UNL     1      10.378 -12.037  -7.558  1.00  0.00     0.000 C 
ENDROOT
BRANCH   1   2
ATOM      2  C   UNL     1      11.809 -12.239  -7.036  1.00  0.00     0.000 C 
BRANCH   2   3
ATOM      3  C   UNL     1      12.140 -11.336  -5.833  1.00  0.00     0.000 C 
BRANCH   3   4
ATOM      4  C   UNL     1      12.857 -12.039  -4.663  1.00  0.00     0.000 C 
BRANCH   4   5
ATOM      5  C   UNL     1      12.067 -13.189  -4.004  1.00  0.00     0.000 C 
BRANCH   5   6
ATOM      6  C   UNL     1      12.912 -14.412  -3.605  1.00  0.00     0.000 C 
BRANCH   6   7
ATOM      7  C   UNL     1      12.508 -15.687  -4.359  1.00  0.00     0.006 C 
BRANCH   7   8
ATOM      8  C   UNL     1      11.291 -15.431  -5.253  1.00  0.00     0.053 C 
BRANCH   8   9
ATOM      9  C   UNL     1      10.175 -16.364  -4.900  1.00  0.00     0.041 C 
ATOM     10  O   UNL     1       8.979 -16.022  -5.091  1.00  0.00    -0.550 OA
ATOM     11  O   UNL     1      10.458 -17.628  -4.397  1.00  0.00    -0.550 OA
ENDBRANCH   8   9
ENDBRANCH   7   8
ENDBRANCH   6   7
ENDBRANCH   5   6
ENDBRANCH   4   5
ENDBRANCH   3   4
ENDBRANCH   2   3
ENDBRANCH   1   2
BRANCH   1  12
ATOM     12  C   UNL     1       9.347 -12.904  -6.815  1.00  0.00     0.000 C 
BRANCH  12  13
ATOM     13  C   UNL     1       8.327 -12.085  -5.994  1.00  0.00    -0.000 C 
BRANCH  13  14
ATOM     14  C   UNL     1       8.680 -12.055  -4.497  1.00  0.00    -0.000 C 
BRANCH  14  15
ATOM     15  C   UNL     1       7.703 -11.205  -3.670  1.00  0.00    -0.000 C 
BRANCH  15  16
ATOM     16  C   UNL     1       8.129 -11.078  -2.197  1.00  0.00    -0.000 C 
BRANCH  16  17
ATOM     17  C   UNL     1       6.963 -11.312  -1.222  1.00  0.00    -0.000 C 
BRANCH  17  18
ATOM     18  C   UNL     1       6.370 -12.727  -1.339  1.00  0.00    -0.000 C 
BRANCH  18  19
ATOM     19  C   UNL     1       7.401 -13.824  -1.028  1.00  0.00    -0.003 C 
ATOM     20  C   UNL     1       7.902 -13.776   0.415  1.00  0.00     0.004 C 
ENDBRANCH  18  19
ENDBRANCH  17  18
ENDBRANCH  16  17
ENDBRANCH  15  16
ENDBRANCH  14  15
ENDBRANCH  13  14
ENDBRANCH  12  13
ENDBRANCH   1  12
TORSDOF 16
ENDMDL
MODEL 9
REMARK VINA RESULT:    -5.694      1.439      5.211
REMARK INTER + INTRA:         -13.237
REMARK INTER:                 -10.920
REMARK INTRA:                  -2.317
REMARK UNBOUND:                -2.218
REMARK SMILES CCCCCCCCCCCCCCCCCC(=O)[O-]
REMARK SMILES IDX 10 1 11 2 12 3 13 4 14 5 15 6 16 7 17 8 18 9 19 10 20 11
REMARK SMILES IDX 9 12 8 13 7 14 6 15 5 16 4 17 3 18 2 19 1 20
REMARK H PARENT
REMARK Flexibility Score: inf
ROOT
ATOM      1  C   UNL     1       9.014 -12.759  -7.202  1.00  0.00     0.000 C 
ENDROOT
BRANCH   1   2
ATOM      2  C   UNL     1      10.242 -12.019  -7.755  1.00  0.00     0.000 C 
BRANCH   2   3
ATOM      3  C   UNL     1      11.546 -12.392  -7.027  1.00  0.00     0.000 C 
BRANCH   3   4
ATOM      4  C   UNL     1      11.989 -11.406  -5.928  1.00  0.00     0.000 C 
BRANCH   4   5
ATOM      5  C   UNL     1      12.896 -12.006  -4.833  1.00  0.00     0.000 C 
BRANCH   5   6
ATOM      6  C   UNL     1      12.526 -13.434  -4.395  1.00  0.00     0.000 C 
BRANCH   6   7
ATOM      7  C   UNL     1      12.902 -13.725  -2.934  1.00  0.00     0.006 C 
BRANCH   7   8
ATOM      8  C   UNL     1      12.564 -12.532  -2.035  1.00  0.00     0.053 C 
BRANCH   8   9
ATOM      9  C   UNL     1      13.595 -12.378  -0.961  1.00  0.00     0.041 C 
ATOM     10  O   UNL     1      13.417 -11.556  -0.025  1.00  0.00    -0.550 OA
ATOM     11  O   UNL     1      14.736 -13.171  -0.972  1.00  0.00    -0.550 OA
ENDBRANCH   8   9
ENDBRANCH   7   8
ENDBRANCH   6   7
ENDBRANCH   5   6
ENDBRANCH   4   5
ENDBRANCH   3   4
ENDBRANCH   2   3
ENDBRANCH   1   2
BRANCH   1  12
ATOM     12  C   UNL     1       8.353 -12.016  -6.028  1.00  0.00     0.000 C 
BRANCH  12  13
ATOM     13  C   UNL     1       8.752 -12.570  -4.643  1.00  0.00    -0.000 C 
BRANCH  13  14
ATOM     14  C   UNL     1       9.174 -14.048  -4.711  1.00  0.00    -0.000 C 
BRANCH  14  15
ATOM     15  C   UNL     1       9.102 -14.752  -3.347  1.00  0.00    -0.000 C 
BRANCH  15  16
ATOM     16  C   UNL     1       8.985 -13.762  -2.174  1.00  0.00    -0.000 C 
BRANCH  16  17
ATOM     17  C   UNL     1       7.608 -13.814  -1.492  1.00  0.00    -0.000 C 
BRANCH  17  18
ATOM     18  C   UNL     1       7.320 -12.561  -0.648  1.00  0.00    -0.000 C 
BRANCH  18  19
ATOM     19  C   UNL     1       7.977 -11.298  -1.227  1.00  0.00    -0.003 C 
ATOM     20  C   UNL     1       7.046 -10.517  -2.155  1.00  0.00     0.004 C 
ENDBRANCH  18  19
ENDBRANCH  17  18
ENDBRANCH  16  17
ENDBRANCH  15  16
ENDBRANCH  14  15
ENDBRANCH  13  14
ENDBRANCH  12  13
ENDBRANCH   1  12
TORSDOF 16
ENDMDL
