MODEL 1
REMARK VINA RESULT:    -4.343      0.000      0.000
REMARK INTER + INTRA:          -5.132
REMARK INTER:                  -5.232
REMARK INTRA:                   0.099
REMARK UNBOUND:                 0.099
REMARK SMILES O=c1c(O)c(-c2ccc(O)c(O)c2)oc2cc(O)cc(O)c12
REMARK SMILES IDX 5 1 3 2 2 3 1 4 22 5 20 6 19 7 17 8 16 9 15 10 14 11 6 12
REMARK SMILES IDX 7 13 8 14 9 15 13 16 11 17 10 18 12 20 4 22 21 24 18 26
REMARK H PARENT 10 19 12 21 4 23 21 25 18 27
REMARK Flexibility Score: inf
ROOT
ATOM      1  C   UNL     1      21.988  20.421  30.416  1.00  0.00     0.180 A 
ATOM      2  C   UNL     1      21.111  21.355  29.832  1.00  0.00     0.208 A 
ATOM      3  C   UNL     1      21.374  22.725  29.991  1.00  0.00     0.238 A 
ATOM      4  O   UNL     1      20.601  23.571  29.463  1.00  0.00    -0.285 OA
ATOM      5  C   UNL     1      22.492  23.137  30.746  1.00  0.00     0.111 A 
ATOM      6  C   UNL     1      22.825  24.496  30.957  1.00  0.00     0.134 A 
ATOM      7  C   UNL     1      23.950  24.825  31.728  1.00  0.00     0.093 A 
ATOM      8  C   UNL     1      24.746  23.820  32.291  1.00  0.00     0.123 A 
ATOM      9  C   UNL     1      24.422  22.479  32.085  1.00  0.00     0.094 A 
ATOM     10  C   UNL     1      23.307  22.131  31.317  1.00  0.00     0.146 A 
ATOM     11  O   UNL     1      23.024  20.846  31.133  1.00  0.00    -0.452 OA
ENDROOT
BRANCH   1  12
ATOM     12  C   UNL     1      21.788  18.961  30.277  1.00  0.00     0.025 A 
ATOM     13  C   UNL     1      21.454  18.427  29.024  1.00  0.00     0.016 A 
ATOM     14  C   UNL     1      21.240  17.056  28.875  1.00  0.00     0.051 A 
ATOM     15  C   UNL     1      21.339  16.193  29.973  1.00  0.00     0.157 A 
ATOM     16  C   UNL     1      21.865  18.101  31.386  1.00  0.00     0.062 A 
ATOM     17  C   UNL     1      21.649  16.724  31.247  1.00  0.00     0.158 A 
BRANCH  15  18
ATOM     18  O   UNL     1      21.121  14.832  29.755  1.00  0.00    -0.504 OA
ATOM     19  H   UNL     1      21.231  14.378  28.859  1.00  0.00     0.293 HD
ENDBRANCH  15  18
BRANCH  17  20
ATOM     20  O   UNL     1      21.744  15.931  32.392  1.00  0.00    -0.504 OA
ATOM     21  H   UNL     1      22.307  15.094  32.453  1.00  0.00     0.293 HD
ENDBRANCH  17  20
ENDBRANCH   1  12
BRANCH   2  22
ATOM     22  O   UNL     1      19.983  20.922  29.131  1.00  0.00    -0.502 OA
ATOM     23  H   UNL     1      19.926  20.955  28.120  1.00  0.00     0.293 HD
ENDBRANCH   2  22
BRANCH   6  24
ATOM     24  O   UNL     1      22.050  25.519  30.410  1.00  0.00    -0.507 OA
ATOM     25  H   UNL     1      21.381  25.343  29.670  1.00  0.00     0.293 HD
ENDBRANCH   6  24
BRANCH   8  26
ATOM     26  O   UNL     1      25.863  24.147  33.057  1.00  0.00    -0.508 OA
ATOM     27  H   UNL     1      25.807  24.240  34.064  1.00  0.00     0.293 HD
ENDBRANCH   8  26
TORSDOF 6
ENDMDL
MODEL 2
REMARK VINA RESULT:    -4.065      1.575      3.483
REMARK INTER + INTRA:          -4.797
REMARK INTER:                  -5.002
REMARK INTRA:                   0.205
REMARK UNBOUND:                 0.099
REMARK SMILES O=c1c(O)c(-c2ccc(O)c(O)c2)oc2cc(O)cc(O)c12
REMARK SMILES IDX 5 1 3 2 2 3 1 4 22 5 20 6 19 7 17 8 16 9 15 10 14 11 6 12
REMARK SMILES IDX 7 13 8 14 9 15 13 16 11 17 10 18 12 20 4 22 21 24 18 26
REMARK H PARENT 10 19 12 21 4 23 21 25 18 27
REMARK Flexibility Score: inf
ROOT
ATOM      1  C   UNL     1      22.899  21.489  31.157  1.00  0.00     0.180 A 
ATOM      2  C   UNL     1      24.103  21.957  31.721  1.00  0.00     0.208 A 
ATOM      3  C   UNL     1      24.365  23.336  31.712  1.00  0.00     0.238 A 
ATOM      4  O   UNL     1      25.434  23.768  32.223  1.00  0.00    -0.285 OA
ATOM      5  C   UNL     1      23.435  24.219  31.123  1.00  0.00     0.111 A 
ATOM      6  C   UNL     1      23.625  25.620  31.070  1.00  0.00     0.134 A 
ATOM      7  C   UNL     1      22.656  26.430  30.459  1.00  0.00     0.093 A 
ATOM      8  C   UNL     1      21.504  25.866  29.901  1.00  0.00     0.123 A 
ATOM      9  C   UNL     1      21.311  24.484  29.952  1.00  0.00     0.094 A 
ATOM     10  C   UNL     1      22.264  23.660  30.559  1.00  0.00     0.146 A 
ATOM     11  O   UNL     1      22.053  22.349  30.598  1.00  0.00    -0.452 OA
ENDROOT
BRANCH   1  12
ATOM     12  C   UNL     1      22.544  20.052  31.146  1.00  0.00     0.025 A 
ATOM     13  C   UNL     1      22.877  19.250  32.246  1.00  0.00     0.016 A 
ATOM     14  C   UNL     1      22.570  17.889  32.247  1.00  0.00     0.051 A 
ATOM     15  C   UNL     1      21.939  17.298  31.146  1.00  0.00     0.157 A 
ATOM     16  C   UNL     1      21.932  19.458  30.029  1.00  0.00     0.062 A 
ATOM     17  C   UNL     1      21.622  18.092  30.019  1.00  0.00     0.158 A 
BRANCH  15  18
ATOM     18  O   UNL     1      21.653  15.933  31.213  1.00  0.00    -0.504 OA
ATOM     19  H   UNL     1      20.717  15.552  31.213  1.00  0.00     0.293 HD
ENDBRANCH  15  18
BRANCH  17  20
ATOM     20  O   UNL     1      21.012  17.570  28.876  1.00  0.00    -0.504 OA
ATOM     21  H   UNL     1      20.078  17.187  28.860  1.00  0.00     0.293 HD
ENDBRANCH  17  20
ENDBRANCH   1  12
BRANCH   2  22
ATOM     22  O   UNL     1      25.030  21.058  32.253  1.00  0.00    -0.502 OA
ATOM     23  H   UNL     1      24.777  20.365  32.947  1.00  0.00     0.293 HD
ENDBRANCH   2  22
BRANCH   6  24
ATOM     24  O   UNL     1      24.765  26.212  31.615  1.00  0.00    -0.507 OA
ATOM     25  H   UNL     1      24.947  27.205  31.522  1.00  0.00     0.293 HD
ENDBRANCH   6  24
BRANCH   8  26
ATOM     26  O   UNL     1      20.542  26.671  29.294  1.00  0.00    -0.508 OA
ATOM     27  H   UNL     1      19.847  27.169  29.837  1.00  0.00     0.293 HD
ENDBRANCH   8  26
TORSDOF 6
ENDMDL
MODEL 3
REMARK VINA RESULT:    -3.561      1.414      3.183
REMARK INTER + INTRA:          -4.190
REMARK INTER:                  -4.367
REMARK INTRA:                   0.177
REMARK UNBOUND:                 0.099
REMARK SMILES O=c1c(O)c(-c2ccc(O)c(O)c2)oc2cc(O)cc(O)c12
REMARK SMILES IDX 5 1 3 2 2 3 1 4 22 5 20 6 19 7 17 8 16 9 15 10 14 11 6 12
REMARK SMILES IDX 7 13 8 14 9 15 13 16 11 17 10 18 12 20 4 22 21 24 18 26
REMARK H PARENT 10 19 12 21 4 23 21 25 18 27
REMARK Flexibility Score: inf
ROOT
ATOM      1  C   UNL     1      22.898  21.592  30.994  1.00  0.00     0.180 A 
ATOM      2  C   UNL     1      24.054  21.912  31.732  1.00  0.00     0.208 A 
ATOM      3  C   UNL     1      24.413  23.261  31.881  1.00  0.00     0.238 A 
ATOM      4  O   UNL     1      25.439  23.560  32.550  1.00  0.00    -0.285 OA
ATOM      5  C   UNL     1      23.626  24.263  31.274  1.00  0.00     0.111 A 
ATOM      6  C   UNL     1      23.920  25.643  31.372  1.00  0.00     0.134 A 
ATOM      7  C   UNL     1      23.093  26.578  30.731  1.00  0.00     0.093 A 
ATOM      8  C   UNL     1      21.980  26.157  29.994  1.00  0.00     0.123 A 
ATOM      9  C   UNL     1      21.685  24.797  29.896  1.00  0.00     0.094 A 
ATOM     10  C   UNL     1      22.496  23.850  30.529  1.00  0.00     0.146 A 
ATOM     11  O   UNL     1      22.190  22.562  30.423  1.00  0.00    -0.452 OA
ENDROOT
BRANCH   1  12
ATOM     12  C   UNL     1      22.446  20.195  30.809  1.00  0.00     0.025 A 
ATOM     13  C   UNL     1      21.797  19.832  29.620  1.00  0.00     0.016 A 
ATOM     14  C   UNL     1      21.344  18.525  29.434  1.00  0.00     0.051 A 
ATOM     15  C   UNL     1      21.513  17.560  30.433  1.00  0.00     0.157 A 
ATOM     16  C   UNL     1      22.597  19.235  31.824  1.00  0.00     0.062 A 
ATOM     17  C   UNL     1      22.143  17.922  31.647  1.00  0.00     0.158 A 
BRANCH  15  18
ATOM     18  O   UNL     1      21.044  16.270  30.180  1.00  0.00    -0.504 OA
ATOM     19  H   UNL     1      20.325  16.052  29.505  1.00  0.00     0.293 HD
ENDBRANCH  15  18
BRANCH  17  20
ATOM     20  O   UNL     1      22.329  17.020  32.698  1.00  0.00    -0.504 OA
ATOM     21  H   UNL     1      23.047  16.310  32.710  1.00  0.00     0.293 HD
ENDBRANCH  17  20
ENDBRANCH   1  12
BRANCH   2  22
ATOM     22  O   UNL     1      24.843  20.899  32.282  1.00  0.00    -0.502 OA
ATOM     23  H   UNL     1      25.565  21.085  32.969  1.00  0.00     0.293 HD
ENDBRANCH   2  22
BRANCH   6  24
ATOM     24  O   UNL     1      25.025  26.093  32.097  1.00  0.00    -0.507 OA
ATOM     25  H   UNL     1      25.973  25.868  31.818  1.00  0.00     0.293 HD
ENDBRANCH   6  24
BRANCH   8  26
ATOM     26  O   UNL     1      21.159  27.085  29.358  1.00  0.00    -0.508 OA
ATOM     27  H   UNL     1      20.515  26.810  28.626  1.00  0.00     0.293 HD
ENDBRANCH   8  26
TORSDOF 6
ENDMDL
