MODEL 1
REMARK VINA RESULT:    -5.907      0.000      0.000
REMARK INTER + INTRA:          -7.232
REMARK INTER:                  -6.943
REMARK INTRA:                  -0.289
REMARK UNBOUND:                -0.289
REMARK SMILES O=c1c(O)c(-c2ccc(O)cc2)oc2cc(O)cc(O)c12
REMARK SMILES IDX 5 1 3 2 2 3 1 4 21 5 19 6 18 7 16 8 15 9 14 10 13 11 6 12
REMARK SMILES IDX 7 13 8 14 9 15 12 16 11 17 10 18 4 20 20 22 17 24
REMARK H PARENT 10 19 4 21 20 23 17 25
REMARK Flexibility Score: inf
ROOT
ATOM      1  C   UNL     1      28.266  28.446  13.483  1.00  0.00     0.180 A 
ATOM      2  C   UNL     1      28.075  29.809  13.765  1.00  0.00     0.208 A 
ATOM      3  C   UNL     1      29.130  30.542  14.332  1.00  0.00     0.238 A 
ATOM      4  O   UNL     1      28.972  31.774  14.531  1.00  0.00    -0.285 OA
ATOM      5  C   UNL     1      30.357  29.899  14.624  1.00  0.00     0.111 A 
ATOM      6  C   UNL     1      31.480  30.534  15.235  1.00  0.00     0.134 A 
ATOM      7  C   UNL     1      32.687  29.835  15.357  1.00  0.00     0.093 A 
ATOM      8  C   UNL     1      32.793  28.503  14.950  1.00  0.00     0.123 A 
ATOM      9  C   UNL     1      31.686  27.856  14.407  1.00  0.00     0.094 A 
ATOM     10  C   UNL     1      30.478  28.538  14.239  1.00  0.00     0.146 A 
ATOM     11  O   UNL     1      29.450  27.887  13.708  1.00  0.00    -0.452 OA
ENDROOT
BRANCH   1  12
ATOM     12  C   UNL     1      27.194  27.601  12.909  1.00  0.00     0.021 A 
ATOM     13  C   UNL     1      26.303  26.935  13.768  1.00  0.00     0.016 A 
ATOM     14  C   UNL     1      25.270  26.150  13.246  1.00  0.00     0.047 A 
ATOM     15  C   UNL     1      25.104  26.035  11.860  1.00  0.00     0.115 A 
ATOM     16  C   UNL     1      27.009  27.496  11.518  1.00  0.00     0.016 A 
ATOM     17  C   UNL     1      25.973  26.712  11.000  1.00  0.00     0.047 A 
BRANCH  15  18
ATOM     18  O   UNL     1      24.078  25.257  11.329  1.00  0.00    -0.508 OA
ATOM     19  H   UNL     1      23.176  25.188  11.785  1.00  0.00     0.293 HD
ENDBRANCH  15  18
ENDBRANCH   1  12
BRANCH   2  20
ATOM     20  O   UNL     1      26.863  30.429  13.448  1.00  0.00    -0.502 OA
ATOM     21  H   UNL     1      26.782  31.431  13.320  1.00  0.00     0.293 HD
ENDBRANCH   2  20
BRANCH   6  22
ATOM     22  O   UNL     1      31.453  31.831  15.759  1.00  0.00    -0.507 OA
ATOM     23  H   UNL     1      32.240  32.292  16.190  1.00  0.00     0.293 HD
ENDBRANCH   6  22
BRANCH   8  24
ATOM     24  O   UNL     1      33.993  27.810  15.090  1.00  0.00    -0.508 OA
ATOM     25  H   UNL     1      34.745  28.164  15.671  1.00  0.00     0.293 HD
ENDBRANCH   8  24
TORSDOF 5
ENDMDL
MODEL 2
REMARK VINA RESULT:    -5.786      2.909      6.259
REMARK INTER + INTRA:          -7.089
REMARK INTER:                  -6.800
REMARK INTRA:                  -0.289
REMARK UNBOUND:                -0.289
REMARK SMILES O=c1c(O)c(-c2ccc(O)cc2)oc2cc(O)cc(O)c12
REMARK SMILES IDX 5 1 3 2 2 3 1 4 21 5 19 6 18 7 16 8 15 9 14 10 13 11 6 12
REMARK SMILES IDX 7 13 8 14 9 15 12 16 11 17 10 18 4 20 20 22 17 24
REMARK H PARENT 10 19 4 21 20 23 17 25
REMARK Flexibility Score: inf
ROOT
ATOM      1  C   UNL     1      32.457  28.198  13.089  1.00  0.00     0.180 A 
ATOM      2  C   UNL     1      32.898  28.549  14.376  1.00  0.00     0.208 A 
ATOM      3  C   UNL     1      32.054  29.310  15.201  1.00  0.00     0.238 A 
ATOM      4  O   UNL     1      32.431  29.575  16.372  1.00  0.00    -0.285 OA
ATOM      5  C   UNL     1      30.787  29.723  14.723  1.00  0.00     0.111 A 
ATOM      6  C   UNL     1      29.867  30.530  15.458  1.00  0.00     0.134 A 
ATOM      7  C   UNL     1      28.589  30.769  14.937  1.00  0.00     0.093 A 
ATOM      8  C   UNL     1      28.221  30.284  13.679  1.00  0.00     0.123 A 
ATOM      9  C   UNL     1      29.132  29.546  12.929  1.00  0.00     0.094 A 
ATOM     10  C   UNL     1      30.403  29.260  13.437  1.00  0.00     0.146 A 
ATOM     11  O   UNL     1      31.237  28.544  12.694  1.00  0.00    -0.452 OA
ENDROOT
BRANCH   1  12
ATOM     12  C   UNL     1      33.299  27.419  12.152  1.00  0.00     0.021 A 
ATOM     13  C   UNL     1      34.189  28.092  11.299  1.00  0.00     0.016 A 
ATOM     14  C   UNL     1      35.010  27.375  10.422  1.00  0.00     0.047 A 
ATOM     15  C   UNL     1      34.961  25.976  10.399  1.00  0.00     0.115 A 
ATOM     16  C   UNL     1      33.270  26.012  12.137  1.00  0.00     0.016 A 
ATOM     17  C   UNL     1      34.093  25.298  11.260  1.00  0.00     0.047 A 
BRANCH  15  18
ATOM     18  O   UNL     1      35.774  25.251   9.531  1.00  0.00    -0.508 OA
ATOM     19  H   UNL     1      35.943  24.261   9.667  1.00  0.00     0.293 HD
ENDBRANCH  15  18
ENDBRANCH   1  12
BRANCH   2  20
ATOM     20  O   UNL     1      34.143  28.112  14.837  1.00  0.00    -0.502 OA
ATOM     21  H   UNL     1      34.648  28.589  15.574  1.00  0.00     0.293 HD
ENDBRANCH   2  20
BRANCH   6  22
ATOM     22  O   UNL     1      30.166  31.139  16.681  1.00  0.00    -0.507 OA
ATOM     23  H   UNL     1      30.936  30.878  17.279  1.00  0.00     0.293 HD
ENDBRANCH   6  22
BRANCH   8  24
ATOM     24  O   UNL     1      26.953  30.540  13.163  1.00  0.00    -0.508 OA
ATOM     25  H   UNL     1      26.798  31.266  12.472  1.00  0.00     0.293 HD
ENDBRANCH   8  24
TORSDOF 5
ENDMDL
MODEL 3
REMARK VINA RESULT:    -5.777      3.889      7.006
REMARK INTER + INTRA:          -7.079
REMARK INTER:                  -6.826
REMARK INTRA:                  -0.253
REMARK UNBOUND:                -0.289
REMARK SMILES O=c1c(O)c(-c2ccc(O)cc2)oc2cc(O)cc(O)c12
REMARK SMILES IDX 5 1 3 2 2 3 1 4 21 5 19 6 18 7 16 8 15 9 14 10 13 11 6 12
REMARK SMILES IDX 7 13 8 14 9 15 12 16 11 17 10 18 4 20 20 22 17 24
REMARK H PARENT 10 19 4 21 20 23 17 25
REMARK Flexibility Score: inf
ROOT
ATOM      1  C   UNL     1      33.199  27.873  13.702  1.00  0.00     0.180 A 
ATOM      2  C   UNL     1      33.792  26.816  14.415  1.00  0.00     0.208 A 
ATOM      3  C   UNL     1      34.686  25.963  13.748  1.00  0.00     0.238 A 
ATOM      4  O   UNL     1      35.255  25.052  14.404  1.00  0.00    -0.285 OA
ATOM      5  C   UNL     1      34.962  26.166  12.375  1.00  0.00     0.111 A 
ATOM      6  C   UNL     1      35.821  25.339  11.590  1.00  0.00     0.134 A 
ATOM      7  C   UNL     1      36.124  25.711  10.274  1.00  0.00     0.093 A 
ATOM      8  C   UNL     1      35.550  26.845   9.695  1.00  0.00     0.123 A 
ATOM      9  C   UNL     1      34.664  27.625  10.433  1.00  0.00     0.094 A 
ATOM     10  C   UNL     1      34.370  27.300  11.760  1.00  0.00     0.146 A 
ATOM     11  O   UNL     1      33.529  28.077  12.432  1.00  0.00    -0.452 OA
ENDROOT
BRANCH   1  12
ATOM     12  C   UNL     1      32.228  28.799  14.329  1.00  0.00     0.021 A 
ATOM     13  C   UNL     1      30.851  28.593  14.135  1.00  0.00     0.016 A 
ATOM     14  C   UNL     1      29.917  29.443  14.736  1.00  0.00     0.047 A 
ATOM     15  C   UNL     1      30.346  30.499  15.549  1.00  0.00     0.115 A 
ATOM     16  C   UNL     1      32.651  29.850  15.163  1.00  0.00     0.016 A 
ATOM     17  C   UNL     1      31.714  30.697  15.764  1.00  0.00     0.047 A 
BRANCH  15  18
ATOM     18  O   UNL     1      29.425  31.351  16.153  1.00  0.00    -0.508 OA
ATOM     19  H   UNL     1      29.177  31.255  17.131  1.00  0.00     0.293 HD
ENDBRANCH  15  18
ENDBRANCH   1  12
BRANCH   2  20
ATOM     20  O   UNL     1      33.521  26.646  15.776  1.00  0.00    -0.502 OA
ATOM     21  H   UNL     1      34.246  26.445  16.453  1.00  0.00     0.293 HD
ENDBRANCH   2  20
BRANCH   6  22
ATOM     22  O   UNL     1      36.374  24.137  12.042  1.00  0.00    -0.507 OA
ATOM     23  H   UNL     1      37.141  23.654  11.598  1.00  0.00     0.293 HD
ENDBRANCH   6  22
BRANCH   8  24
ATOM     24  O   UNL     1      35.845  27.198   8.381  1.00  0.00    -0.508 OA
ATOM     25  H   UNL     1      35.872  26.508   7.639  1.00  0.00     0.293 HD
ENDBRANCH   8  24
TORSDOF 5
ENDMDL
MODEL 4
REMARK VINA RESULT:    -5.707      1.831      6.869
REMARK INTER + INTRA:          -6.997
REMARK INTER:                  -6.733
REMARK INTRA:                  -0.264
REMARK UNBOUND:                -0.289
REMARK SMILES O=c1c(O)c(-c2ccc(O)cc2)oc2cc(O)cc(O)c12
REMARK SMILES IDX 5 1 3 2 2 3 1 4 21 5 19 6 18 7 16 8 15 9 14 10 13 11 6 12
REMARK SMILES IDX 7 13 8 14 9 15 12 16 11 17 10 18 4 20 20 22 17 24
REMARK H PARENT 10 19 4 21 20 23 17 25
REMARK Flexibility Score: inf
ROOT
ATOM      1  C   UNL     1      27.542  28.907  13.177  1.00  0.00     0.180 A 
ATOM      2  C   UNL     1      26.866  29.400  12.049  1.00  0.00     0.208 A 
ATOM      3  C   UNL     1      25.821  28.641  11.495  1.00  0.00     0.238 A 
ATOM      4  O   UNL     1      25.183  29.113  10.519  1.00  0.00    -0.285 OA
ATOM      5  C   UNL     1      25.478  27.393  12.067  1.00  0.00     0.111 A 
ATOM      6  C   UNL     1      24.464  26.523  11.565  1.00  0.00     0.134 A 
ATOM      7  C   UNL     1      24.121  25.373  12.288  1.00  0.00     0.093 A 
ATOM      8  C   UNL     1      24.799  25.029  13.459  1.00  0.00     0.123 A 
ATOM      9  C   UNL     1      25.830  25.840  13.925  1.00  0.00     0.094 A 
ATOM     10  C   UNL     1      26.172  27.013  13.246  1.00  0.00     0.146 A 
ATOM     11  O   UNL     1      27.153  27.764  13.730  1.00  0.00    -0.452 OA
ENDROOT
BRANCH   1  12
ATOM     12  C   UNL     1      28.670  29.636  13.802  1.00  0.00     0.021 A 
ATOM     13  C   UNL     1      29.989  29.295  13.460  1.00  0.00     0.016 A 
ATOM     14  C   UNL     1      31.068  29.986  14.021  1.00  0.00     0.047 A 
ATOM     15  C   UNL     1      30.840  31.037  14.919  1.00  0.00     0.115 A 
ATOM     16  C   UNL     1      28.449  30.705  14.690  1.00  0.00     0.016 A 
ATOM     17  C   UNL     1      29.529  31.395  15.248  1.00  0.00     0.047 A 
BRANCH  15  18
ATOM     18  O   UNL     1      31.906  31.732  15.484  1.00  0.00    -0.508 OA
ATOM     19  H   UNL     1      31.757  32.556  16.054  1.00  0.00     0.293 HD
ENDBRANCH  15  18
ENDBRANCH   1  12
BRANCH   2  20
ATOM     20  O   UNL     1      27.206  30.645  11.513  1.00  0.00    -0.502 OA
ATOM     21  H   UNL     1      26.700  31.062  10.740  1.00  0.00     0.293 HD
ENDBRANCH   2  20
BRANCH   6  22
ATOM     22  O   UNL     1      23.789  26.726  10.357  1.00  0.00    -0.507 OA
ATOM     23  H   UNL     1      24.145  26.467   9.449  1.00  0.00     0.293 HD
ENDBRANCH   6  22
BRANCH   8  24
ATOM     24  O   UNL     1      24.462  23.875  14.162  1.00  0.00    -0.508 OA
ATOM     25  H   UNL     1      24.353  23.880  15.171  1.00  0.00     0.293 HD
ENDBRANCH   8  24
TORSDOF 5
ENDMDL
MODEL 5
REMARK VINA RESULT:    -5.690      1.926      7.131
REMARK INTER + INTRA:          -6.977
REMARK INTER:                  -6.879
REMARK INTRA:                  -0.099
REMARK UNBOUND:                -0.289
REMARK SMILES O=c1c(O)c(-c2ccc(O)cc2)oc2cc(O)cc(O)c12
REMARK SMILES IDX 5 1 3 2 2 3 1 4 21 5 19 6 18 7 16 8 15 9 14 10 13 11 6 12
REMARK SMILES IDX 7 13 8 14 9 15 12 16 11 17 10 18 4 20 20 22 17 24
REMARK H PARENT 10 19 4 21 20 23 17 25
REMARK Flexibility Score: inf
ROOT
ATOM      1  C   UNL     1      27.937  28.341  13.937  1.00  0.00     0.180 A 
ATOM      2  C   UNL     1      27.966  27.108  14.610  1.00  0.00     0.208 A 
ATOM      3  C   UNL     1      26.963  26.162  14.342  1.00  0.00     0.238 A 
ATOM      4  O   UNL     1      27.025  25.039  14.906  1.00  0.00    -0.285 OA
ATOM      5  C   UNL     1      25.936  26.467  13.416  1.00  0.00     0.111 A 
ATOM      6  C   UNL     1      24.849  25.599  13.097  1.00  0.00     0.134 A 
ATOM      7  C   UNL     1      23.963  25.951  12.071  1.00  0.00     0.093 A 
ATOM      8  C   UNL     1      24.088  27.167  11.396  1.00  0.00     0.123 A 
ATOM      9  C   UNL     1      25.111  28.047  11.741  1.00  0.00     0.094 A 
ATOM     10  C   UNL     1      26.032  27.709  12.736  1.00  0.00     0.146 A 
ATOM     11  O   UNL     1      26.998  28.571  13.026  1.00  0.00    -0.452 OA
ENDROOT
BRANCH   1  12
ATOM     12  C   UNL     1      28.944  29.398  14.185  1.00  0.00     0.021 A 
ATOM     13  C   UNL     1      28.541  30.619  14.752  1.00  0.00     0.016 A 
ATOM     14  C   UNL     1      29.478  31.622  15.014  1.00  0.00     0.047 A 
ATOM     15  C   UNL     1      30.833  31.411  14.728  1.00  0.00     0.115 A 
ATOM     16  C   UNL     1      30.309  29.187  13.917  1.00  0.00     0.016 A 
ATOM     17  C   UNL     1      31.245  30.192  14.183  1.00  0.00     0.047 A 
BRANCH  15  18
ATOM     18  O   UNL     1      31.777  32.403  14.986  1.00  0.00    -0.508 OA
ATOM     19  H   UNL     1      32.450  32.688  14.284  1.00  0.00     0.293 HD
ENDBRANCH  15  18
ENDBRANCH   1  12
BRANCH   2  20
ATOM     20  O   UNL     1      29.001  26.818  15.504  1.00  0.00    -0.502 OA
ATOM     21  H   UNL     1      29.267  27.449  16.251  1.00  0.00     0.293 HD
ENDBRANCH   2  20
BRANCH   6  22
ATOM     22  O   UNL     1      24.579  24.404  13.773  1.00  0.00    -0.507 OA
ATOM     23  H   UNL     1      25.272  23.843  14.245  1.00  0.00     0.293 HD
ENDBRANCH   6  22
BRANCH   8  24
ATOM     24  O   UNL     1      23.194  27.515  10.387  1.00  0.00    -0.508 OA
ATOM     25  H   UNL     1      22.202  27.319  10.466  1.00  0.00     0.293 HD
ENDBRANCH   8  24
TORSDOF 5
ENDMDL
MODEL 6
REMARK VINA RESULT:    -5.442      3.064      6.094
REMARK INTER + INTRA:          -6.686
REMARK INTER:                  -6.525
REMARK INTRA:                  -0.161
REMARK UNBOUND:                -0.289
REMARK SMILES O=c1c(O)c(-c2ccc(O)cc2)oc2cc(O)cc(O)c12
REMARK SMILES IDX 5 1 3 2 2 3 1 4 21 5 19 6 18 7 16 8 15 9 14 10 13 11 6 12
REMARK SMILES IDX 7 13 8 14 9 15 12 16 11 17 10 18 4 20 20 22 17 24
REMARK H PARENT 10 19 4 21 20 23 17 25
REMARK Flexibility Score: inf
ROOT
ATOM      1  C   UNL     1      32.116  28.310  12.589  1.00  0.00     0.180 A 
ATOM      2  C   UNL     1      30.922  28.350  11.850  1.00  0.00     0.208 A 
ATOM      3  C   UNL     1      29.817  29.037  12.379  1.00  0.00     0.238 A 
ATOM      4  O   UNL     1      28.767  29.116  11.688  1.00  0.00    -0.285 OA
ATOM      5  C   UNL     1      29.915  29.661  13.646  1.00  0.00     0.111 A 
ATOM      6  C   UNL     1      28.847  30.350  14.295  1.00  0.00     0.134 A 
ATOM      7  C   UNL     1      29.095  31.041  15.488  1.00  0.00     0.093 A 
ATOM      8  C   UNL     1      30.356  31.014  16.088  1.00  0.00     0.123 A 
ATOM      9  C   UNL     1      31.389  30.295  15.492  1.00  0.00     0.094 A 
ATOM     10  C   UNL     1      31.183  29.625  14.283  1.00  0.00     0.146 A 
ATOM     11  O   UNL     1      32.197  28.961  13.744  1.00  0.00    -0.452 OA
ENDROOT
BRANCH   1  12
ATOM     12  C   UNL     1      33.316  27.586  12.111  1.00  0.00     0.021 A 
ATOM     13  C   UNL     1      33.715  26.404  12.758  1.00  0.00     0.016 A 
ATOM     14  C   UNL     1      34.831  25.692  12.308  1.00  0.00     0.047 A 
ATOM     15  C   UNL     1      35.553  26.144  11.196  1.00  0.00     0.115 A 
ATOM     16  C   UNL     1      34.035  28.023  10.982  1.00  0.00     0.016 A 
ATOM     17  C   UNL     1      35.150  27.308  10.534  1.00  0.00     0.047 A 
BRANCH  15  18
ATOM     18  O   UNL     1      36.666  25.444  10.739  1.00  0.00    -0.508 OA
ATOM     19  H   UNL     1      37.516  25.384  11.287  1.00  0.00     0.293 HD
ENDBRANCH  15  18
ENDBRANCH   1  12
BRANCH   2  20
ATOM     20  O   UNL     1      30.853  27.746  10.591  1.00  0.00    -0.502 OA
ATOM     21  H   UNL     1      30.429  26.838  10.447  1.00  0.00     0.293 HD
ENDBRANCH   2  20
BRANCH   6  22
ATOM     22  O   UNL     1      27.528  30.363  13.828  1.00  0.00    -0.507 OA
ATOM     23  H   UNL     1      27.112  31.117  13.304  1.00  0.00     0.293 HD
ENDBRANCH   6  22
BRANCH   8  24
ATOM     24  O   UNL     1      30.589  31.690  17.282  1.00  0.00    -0.508 OA
ATOM     25  H   UNL     1      31.344  31.425  17.904  1.00  0.00     0.293 HD
ENDBRANCH   8  24
TORSDOF 5
ENDMDL
MODEL 7
REMARK VINA RESULT:    -5.368      1.181      3.048
REMARK INTER + INTRA:          -6.598
REMARK INTER:                  -6.391
REMARK INTRA:                  -0.207
REMARK UNBOUND:                -0.289
REMARK SMILES O=c1c(O)c(-c2ccc(O)cc2)oc2cc(O)cc(O)c12
REMARK SMILES IDX 5 1 3 2 2 3 1 4 21 5 19 6 18 7 16 8 15 9 14 10 13 11 6 12
REMARK SMILES IDX 7 13 8 14 9 15 12 16 11 17 10 18 4 20 20 22 17 24
REMARK H PARENT 10 19 4 21 20 23 17 25
REMARK Flexibility Score: inf
ROOT
ATOM      1  C   UNL     1      28.454  27.848  13.516  1.00  0.00     0.180 A 
ATOM      2  C   UNL     1      29.490  26.928  13.752  1.00  0.00     0.208 A 
ATOM      3  C   UNL     1      30.708  27.395  14.273  1.00  0.00     0.238 A 
ATOM      4  O   UNL     1      31.613  26.560  14.534  1.00  0.00    -0.285 OA
ATOM      5  C   UNL     1      30.879  28.775  14.536  1.00  0.00     0.111 A 
ATOM      6  C   UNL     1      32.084  29.362  15.028  1.00  0.00     0.134 A 
ATOM      7  C   UNL     1      32.098  30.719  15.375  1.00  0.00     0.093 A 
ATOM      8  C   UNL     1      30.971  31.523  15.188  1.00  0.00     0.123 A 
ATOM      9  C   UNL     1      29.810  30.972  14.654  1.00  0.00     0.094 A 
ATOM     10  C   UNL     1      29.753  29.614  14.331  1.00  0.00     0.146 A 
ATOM     11  O   UNL     1      28.623  29.126  13.834  1.00  0.00    -0.452 OA
ENDROOT
BRANCH   1  12
ATOM     12  C   UNL     1      27.151  27.438  12.944  1.00  0.00     0.021 A 
ATOM     13  C   UNL     1      26.862  27.728  11.600  1.00  0.00     0.016 A 
ATOM     14  C   UNL     1      25.647  27.330  11.035  1.00  0.00     0.047 A 
ATOM     15  C   UNL     1      24.711  26.623  11.801  1.00  0.00     0.115 A 
ATOM     16  C   UNL     1      26.214  26.710  13.702  1.00  0.00     0.016 A 
ATOM     17  C   UNL     1      25.001  26.312  13.133  1.00  0.00     0.047 A 
BRANCH  15  18
ATOM     18  O   UNL     1      23.498  26.221  11.249  1.00  0.00    -0.508 OA
ATOM     19  H   UNL     1      23.418  25.974  10.269  1.00  0.00     0.293 HD
ENDBRANCH  15  18
ENDBRANCH   1  12
BRANCH   2  20
ATOM     20  O   UNL     1      29.292  25.567  13.506  1.00  0.00    -0.502 OA
ATOM     21  H   UNL     1      29.227  25.188  12.568  1.00  0.00     0.293 HD
ENDBRANCH   2  20
BRANCH   6  22
ATOM     22  O   UNL     1      33.291  28.670  15.165  1.00  0.00    -0.507 OA
ATOM     23  H   UNL     1      33.676  28.044  14.474  1.00  0.00     0.293 HD
ENDBRANCH   6  22
BRANCH   8  24
ATOM     24  O   UNL     1      31.000  32.875  15.522  1.00  0.00    -0.508 OA
ATOM     25  H   UNL     1      30.287  33.292  16.110  1.00  0.00     0.293 HD
ENDBRANCH   8  24
TORSDOF 5
ENDMDL
MODEL 8
REMARK VINA RESULT:    -5.207      1.935      3.099
REMARK INTER + INTRA:          -6.409
REMARK INTER:                  -6.118
REMARK INTRA:                  -0.291
REMARK UNBOUND:                -0.289
REMARK SMILES O=c1c(O)c(-c2ccc(O)cc2)oc2cc(O)cc(O)c12
REMARK SMILES IDX 5 1 3 2 2 3 1 4 21 5 19 6 18 7 16 8 15 9 14 10 13 11 6 12
REMARK SMILES IDX 7 13 8 14 9 15 12 16 11 17 10 18 4 20 20 22 17 24
REMARK H PARENT 10 19 4 21 20 23 17 25
REMARK Flexibility Score: inf
ROOT
ATOM      1  C   UNL     1      27.576  28.627  12.412  1.00  0.00     0.180 A 
ATOM      2  C   UNL     1      28.658  27.903  11.883  1.00  0.00     0.208 A 
ATOM      3  C   UNL     1      29.947  28.141  12.388  1.00  0.00     0.238 A 
ATOM      4  O   UNL     1      30.905  27.453  11.949  1.00  0.00    -0.285 OA
ATOM      5  C   UNL     1      30.139  29.109  13.403  1.00  0.00     0.111 A 
ATOM      6  C   UNL     1      31.405  29.459  13.960  1.00  0.00     0.134 A 
ATOM      7  C   UNL     1      31.461  30.337  15.050  1.00  0.00     0.093 A 
ATOM      8  C   UNL     1      30.303  30.925  15.562  1.00  0.00     0.123 A 
ATOM      9  C   UNL     1      29.068  30.636  14.987  1.00  0.00     0.094 A 
ATOM     10  C   UNL     1      28.976  29.737  13.921  1.00  0.00     0.146 A 
ATOM     11  O   UNL     1      27.779  29.480  13.409  1.00  0.00    -0.452 OA
ENDROOT
BRANCH   1  12
ATOM     12  C   UNL     1      26.192  28.450  11.915  1.00  0.00     0.021 A 
ATOM     13  C   UNL     1      25.363  27.480  12.503  1.00  0.00     0.016 A 
ATOM     14  C   UNL     1      24.046  27.312  12.064  1.00  0.00     0.047 A 
ATOM     15  C   UNL     1      23.537  28.122  11.041  1.00  0.00     0.115 A 
ATOM     16  C   UNL     1      25.667  29.273  10.901  1.00  0.00     0.016 A 
ATOM     17  C   UNL     1      24.349  29.104  10.465  1.00  0.00     0.047 A 
BRANCH  15  18
ATOM     18  O   UNL     1      22.227  27.965  10.595  1.00  0.00    -0.508 OA
ATOM     19  H   UNL     1      22.008  27.390   9.790  1.00  0.00     0.293 HD
ENDBRANCH  15  18
ENDBRANCH   1  12
BRANCH   2  20
ATOM     20  O   UNL     1      28.444  26.937  10.897  1.00  0.00    -0.502 OA
ATOM     21  H   UNL     1      28.309  25.957  11.115  1.00  0.00     0.293 HD
ENDBRANCH   2  20
BRANCH   6  22
ATOM     22  O   UNL     1      32.630  29.000  13.465  1.00  0.00    -0.507 OA
ATOM     23  H   UNL     1      32.739  28.437  12.635  1.00  0.00     0.293 HD
ENDBRANCH   6  22
BRANCH   8  24
ATOM     24  O   UNL     1      30.370  31.809  16.637  1.00  0.00    -0.508 OA
ATOM     25  H   UNL     1      31.255  32.168  16.974  1.00  0.00     0.293 HD
ENDBRANCH   8  24
TORSDOF 5
ENDMDL
MODEL 9
REMARK VINA RESULT:    -5.190      2.133      6.227
REMARK INTER + INTRA:          -6.389
REMARK INTER:                  -6.088
REMARK INTRA:                  -0.300
REMARK UNBOUND:                -0.289
REMARK SMILES O=c1c(O)c(-c2ccc(O)cc2)oc2cc(O)cc(O)c12
REMARK SMILES IDX 5 1 3 2 2 3 1 4 21 5 19 6 18 7 16 8 15 9 14 10 13 11 6 12
REMARK SMILES IDX 7 13 8 14 9 15 12 16 11 17 10 18 4 20 20 22 17 24
REMARK H PARENT 10 19 4 21 20 23 17 25
REMARK Flexibility Score: inf
ROOT
ATOM      1  C   UNL     1      31.879  28.059  14.223  1.00  0.00     0.180 A 
ATOM      2  C   UNL     1      31.971  29.272  14.926  1.00  0.00     0.208 A 
ATOM      3  C   UNL     1      30.892  30.170  14.878  1.00  0.00     0.238 A 
ATOM      4  O   UNL     1      30.958  31.230  15.552  1.00  0.00    -0.285 OA
ATOM      5  C   UNL     1      29.743  29.850  14.116  1.00  0.00     0.111 A 
ATOM      6  C   UNL     1      28.608  30.702  13.965  1.00  0.00     0.134 A 
ATOM      7  C   UNL     1      27.473  30.228  13.295  1.00  0.00     0.093 A 
ATOM      8  C   UNL     1      27.456  28.957  12.715  1.00  0.00     0.123 A 
ATOM      9  C   UNL     1      28.581  28.141  12.806  1.00  0.00     0.094 A 
ATOM     10  C   UNL     1      29.715  28.572  13.499  1.00  0.00     0.146 A 
ATOM     11  O   UNL     1      30.762  27.759  13.571  1.00  0.00    -0.452 OA
ENDROOT
BRANCH   1  12
ATOM     12  C   UNL     1      32.984  27.073  14.204  1.00  0.00     0.021 A 
ATOM     13  C   UNL     1      32.988  26.019  15.134  1.00  0.00     0.016 A 
ATOM     14  C   UNL     1      34.010  25.066  15.120  1.00  0.00     0.047 A 
ATOM     15  C   UNL     1      35.033  25.144  14.166  1.00  0.00     0.115 A 
ATOM     16  C   UNL     1      34.005  27.134  13.237  1.00  0.00     0.016 A 
ATOM     17  C   UNL     1      35.024  26.177  13.224  1.00  0.00     0.047 A 
BRANCH  15  18
ATOM     18  O   UNL     1      36.056  24.199  14.142  1.00  0.00    -0.508 OA
ATOM     19  H   UNL     1      36.482  23.903  13.272  1.00  0.00     0.293 HD
ENDBRANCH  15  18
ENDBRANCH   1  12
BRANCH   2  20
ATOM     20  O   UNL     1      33.106  29.559  15.689  1.00  0.00    -0.502 OA
ATOM     21  H   UNL     1      33.151  30.348  16.323  1.00  0.00     0.293 HD
ENDBRANCH   2  20
BRANCH   6  22
ATOM     22  O   UNL     1      28.555  32.022  14.426  1.00  0.00    -0.507 OA
ATOM     23  H   UNL     1      28.830  32.319  15.350  1.00  0.00     0.293 HD
ENDBRANCH   6  22
BRANCH   8  24
ATOM     24  O   UNL     1      26.329  28.501  12.037  1.00  0.00    -0.508 OA
ATOM     25  H   UNL     1      25.392  28.738  12.344  1.00  0.00     0.293 HD
ENDBRANCH   8  24
TORSDOF 5
ENDMDL
