MODEL 1
REMARK VINA RESULT:    -6.560      0.000      0.000
REMARK INTER + INTRA:          -7.848
REMARK INTER:                  -7.711
REMARK INTRA:                  -0.137
REMARK UNBOUND:                -0.137
REMARK SMILES O=C([O-])C=Cc1ccc(O)c(O)c1
REMARK SMILES IDX 6 1 13 2 7 3 11 4 8 5 9 6 5 7 4 8 2 9 1 10 3 11 12 12 10 14
REMARK H PARENT 12 13 10 15
REMARK Flexibility Score: inf
ROOT
ATOM      1  C   UNL     1      80.935  61.886   7.281  1.00  0.00    -0.022 A 
ATOM      2  C   UNL     1      79.908  62.550   7.972  1.00  0.00     0.058 A 
ATOM      3  C   UNL     1      80.642  61.292   6.037  1.00  0.00     0.012 A 
ATOM      4  C   UNL     1      78.610  62.605   7.452  1.00  0.00     0.157 A 
ATOM      5  C   UNL     1      79.347  61.346   5.515  1.00  0.00     0.051 A 
ATOM      6  C   UNL     1      78.326  61.997   6.219  1.00  0.00     0.157 A 
ENDROOT
BRANCH   1   7
ATOM      7  C   UNL     1      82.295  61.868   7.874  1.00  0.00     0.010 C 
ATOM      8  C   UNL     1      83.423  61.920   7.152  1.00  0.00     0.025 C 
BRANCH   8   9
ATOM      9  C   UNL     1      84.758  61.888   7.775  1.00  0.00     0.064 C 
ATOM     10  O   UNL     1      85.018  62.583   8.794  1.00  0.00    -0.545 OA
ATOM     11  O   UNL     1      85.747  61.082   7.228  1.00  0.00    -0.545 OA
ENDBRANCH   8   9
ENDBRANCH   1   7
BRANCH   4  12
ATOM     12  O   UNL     1      77.617  63.266   8.175  1.00  0.00    -0.504 OA
ATOM     13  H   UNL     1      77.757  63.562   9.134  1.00  0.00     0.293 HD
ENDBRANCH   4  12
BRANCH   6  14
ATOM     14  O   UNL     1      77.035  62.046   5.695  1.00  0.00    -0.504 OA
ATOM     15  H   UNL     1      76.374  61.292   5.840  1.00  0.00     0.293 HD
ENDBRANCH   6  14
TORSDOF 4
ENDMDL
MODEL 2
REMARK VINA RESULT:    -6.416      1.591      6.164
REMARK INTER + INTRA:          -7.679
REMARK INTER:                  -7.550
REMARK INTRA:                  -0.128
REMARK UNBOUND:                -0.137
REMARK SMILES O=C([O-])C=Cc1ccc(O)c(O)c1
REMARK SMILES IDX 6 1 13 2 7 3 11 4 8 5 9 6 5 7 4 8 2 9 1 10 3 11 12 12 10 14
REMARK H PARENT 12 13 10 15
REMARK Flexibility Score: inf
ROOT
ATOM      1  C   UNL     1      83.052  60.825   6.725  1.00  0.00    -0.022 A 
ATOM      2  C   UNL     1      83.661  61.980   7.242  1.00  0.00     0.058 A 
ATOM      3  C   UNL     1      83.816  59.647   6.612  1.00  0.00     0.012 A 
ATOM      4  C   UNL     1      85.010  61.974   7.618  1.00  0.00     0.157 A 
ATOM      5  C   UNL     1      85.162  59.638   6.987  1.00  0.00     0.051 A 
ATOM      6  C   UNL     1      85.766  60.798   7.487  1.00  0.00     0.157 A 
ENDROOT
BRANCH   1   7
ATOM      7  C   UNL     1      81.616  60.885   6.353  1.00  0.00     0.010 C 
ATOM      8  C   UNL     1      80.627  61.098   7.232  1.00  0.00     0.025 C 
BRANCH   8   9
ATOM      9  C   UNL     1      79.211  61.139   6.828  1.00  0.00     0.064 C 
ATOM     10  O   UNL     1      78.876  61.478   5.661  1.00  0.00    -0.545 OA
ATOM     11  O   UNL     1      78.228  60.802   7.749  1.00  0.00    -0.545 OA
ENDBRANCH   8   9
ENDBRANCH   1   7
BRANCH   4  12
ATOM     12  O   UNL     1      85.579  63.145   8.117  1.00  0.00    -0.504 OA
ATOM     13  H   UNL     1      85.132  64.048   8.014  1.00  0.00     0.293 HD
ENDBRANCH   4  12
BRANCH   6  14
ATOM     14  O   UNL     1      87.109  60.786   7.858  1.00  0.00    -0.504 OA
ATOM     15  H   UNL     1      87.738  60.052   7.551  1.00  0.00     0.293 HD
ENDBRANCH   6  14
TORSDOF 4
ENDMDL
MODEL 3
REMARK VINA RESULT:    -6.264      1.584      2.671
REMARK INTER + INTRA:          -7.500
REMARK INTER:                  -7.368
REMARK INTRA:                  -0.132
REMARK UNBOUND:                -0.137
REMARK SMILES O=C([O-])C=Cc1ccc(O)c(O)c1
REMARK SMILES IDX 6 1 13 2 7 3 11 4 8 5 9 6 5 7 4 8 2 9 1 10 3 11 12 12 10 14
REMARK H PARENT 12 13 10 15
REMARK Flexibility Score: inf
ROOT
ATOM      1  C   UNL     1      80.760  62.215   8.609  1.00  0.00    -0.022 A 
ATOM      2  C   UNL     1      79.667  62.666   7.851  1.00  0.00     0.058 A 
ATOM      3  C   UNL     1      80.590  62.016   9.994  1.00  0.00     0.012 A 
ATOM      4  C   UNL     1      78.435  62.938   8.458  1.00  0.00     0.157 A 
ATOM      5  C   UNL     1      79.362  62.286  10.602  1.00  0.00     0.051 A 
ATOM      6  C   UNL     1      78.282  62.751   9.841  1.00  0.00     0.157 A 
ENDROOT
BRANCH   1   7
ATOM      7  C   UNL     1      82.040  61.933   7.912  1.00  0.00     0.010 C 
ATOM      8  C   UNL     1      83.239  62.311   8.375  1.00  0.00     0.025 C 
BRANCH   8   9
ATOM      9  C   UNL     1      84.488  62.022   7.650  1.00  0.00     0.064 C 
ATOM     10  O   UNL     1      84.614  62.308   6.428  1.00  0.00    -0.545 OA
ATOM     11  O   UNL     1      85.545  61.423   8.322  1.00  0.00    -0.545 OA
ENDBRANCH   8   9
ENDBRANCH   1   7
BRANCH   4  12
ATOM     12  O   UNL     1      77.377  63.394   7.671  1.00  0.00    -0.504 OA
ATOM     13  H   UNL     1      76.842  64.218   7.915  1.00  0.00     0.293 HD
ENDBRANCH   4  12
BRANCH   6  14
ATOM     14  O   UNL     1      77.058  63.020  10.452  1.00  0.00    -0.504 OA
ATOM     15  H   UNL     1      76.184  62.952   9.943  1.00  0.00     0.293 HD
ENDBRANCH   6  14
TORSDOF 4
ENDMDL
MODEL 4
REMARK VINA RESULT:    -6.196      2.460      5.546
REMARK INTER + INTRA:          -7.419
REMARK INTER:                  -7.281
REMARK INTRA:                  -0.138
REMARK UNBOUND:                -0.137
REMARK SMILES O=C([O-])C=Cc1ccc(O)c(O)c1
REMARK SMILES IDX 6 1 13 2 7 3 11 4 8 5 9 6 5 7 4 8 2 9 1 10 3 11 12 12 10 14
REMARK H PARENT 12 13 10 15
REMARK Flexibility Score: inf
ROOT
ATOM      1  C   UNL     1      81.652  61.931   8.530  1.00  0.00    -0.022 A 
ATOM      2  C   UNL     1      82.982  62.241   8.858  1.00  0.00     0.058 A 
ATOM      3  C   UNL     1      80.649  62.129   9.500  1.00  0.00     0.012 A 
ATOM      4  C   UNL     1      83.315  62.716  10.132  1.00  0.00     0.157 A 
ATOM      5  C   UNL     1      80.979  62.604  10.772  1.00  0.00     0.051 A 
ATOM      6  C   UNL     1      82.310  62.895  11.095  1.00  0.00     0.157 A 
ENDROOT
BRANCH   1   7
ATOM      7  C   UNL     1      81.354  61.441   7.161  1.00  0.00     0.010 C 
ATOM      8  C   UNL     1      80.155  61.555   6.574  1.00  0.00     0.025 C 
BRANCH   8   9
ATOM      9  C   UNL     1      79.892  61.046   5.217  1.00  0.00     0.064 C 
ATOM     10  O   UNL     1      80.421  59.978   4.807  1.00  0.00    -0.545 OA
ATOM     11  O   UNL     1      79.049  61.756   4.373  1.00  0.00    -0.545 OA
ENDBRANCH   8   9
ENDBRANCH   1   7
BRANCH   4  12
ATOM     12  O   UNL     1      84.649  63.002  10.421  1.00  0.00    -0.504 OA
ATOM     13  H   UNL     1      84.915  63.627  11.173  1.00  0.00     0.293 HD
ENDBRANCH   4  12
BRANCH   6  14
ATOM     14  O   UNL     1      82.635  63.367  12.366  1.00  0.00    -0.504 OA
ATOM     15  H   UNL     1      82.157  64.162  12.776  1.00  0.00     0.293 HD
ENDBRANCH   6  14
TORSDOF 4
ENDMDL
MODEL 5
REMARK VINA RESULT:    -6.156      2.743      5.170
REMARK INTER + INTRA:          -7.372
REMARK INTER:                  -7.238
REMARK INTRA:                  -0.134
REMARK UNBOUND:                -0.137
REMARK SMILES O=C([O-])C=Cc1ccc(O)c(O)c1
REMARK SMILES IDX 6 1 13 2 7 3 11 4 8 5 9 6 5 7 4 8 2 9 1 10 3 11 12 12 10 14
REMARK H PARENT 12 13 10 15
REMARK Flexibility Score: inf
ROOT
ATOM      1  C   UNL     1      81.771  62.014   8.511  1.00  0.00    -0.022 A 
ATOM      2  C   UNL     1      80.708  62.261   9.395  1.00  0.00     0.058 A 
ATOM      3  C   UNL     1      83.090  62.228   8.959  1.00  0.00     0.012 A 
ATOM      4  C   UNL     1      80.946  62.735  10.691  1.00  0.00     0.157 A 
ATOM      5  C   UNL     1      83.331  62.700  10.252  1.00  0.00     0.051 A 
ATOM      6  C   UNL     1      82.264  62.958  11.121  1.00  0.00     0.157 A 
ENDROOT
BRANCH   1   7
ATOM      7  C   UNL     1      81.461  61.503   7.152  1.00  0.00     0.010 C 
ATOM      8  C   UNL     1      80.245  61.563   6.594  1.00  0.00     0.025 C 
BRANCH   8   9
ATOM      9  C   UNL     1      79.972  61.034   5.246  1.00  0.00     0.064 C 
ATOM     10  O   UNL     1      80.533  59.985   4.832  1.00  0.00    -0.545 OA
ATOM     11  O   UNL     1      79.083  61.705   4.417  1.00  0.00    -0.545 OA
ENDBRANCH   8   9
ENDBRANCH   1   7
BRANCH   4  12
ATOM     12  O   UNL     1      79.862  62.977  11.534  1.00  0.00    -0.504 OA
ATOM     13  H   UNL     1      79.797  63.814  12.101  1.00  0.00     0.293 HD
ENDBRANCH   4  12
BRANCH   6  14
ATOM     14  O   UNL     1      82.508  63.430  12.410  1.00  0.00    -0.504 OA
ATOM     15  H   UNL     1      83.090  62.917  13.062  1.00  0.00     0.293 HD
ENDBRANCH   6  14
TORSDOF 4
ENDMDL
MODEL 6
REMARK VINA RESULT:    -5.946      2.494      5.959
REMARK INTER + INTRA:          -7.125
REMARK INTER:                  -6.991
REMARK INTRA:                  -0.134
REMARK UNBOUND:                -0.137
REMARK SMILES O=C([O-])C=Cc1ccc(O)c(O)c1
REMARK SMILES IDX 6 1 13 2 7 3 11 4 8 5 9 6 5 7 4 8 2 9 1 10 3 11 12 12 10 14
REMARK H PARENT 12 13 10 15
REMARK Flexibility Score: inf
ROOT
ATOM      1  C   UNL     1      81.670  62.135   8.959  1.00  0.00    -0.022 A 
ATOM      2  C   UNL     1      82.788  62.484   9.735  1.00  0.00     0.058 A 
ATOM      3  C   UNL     1      81.864  61.790   7.606  1.00  0.00     0.012 A 
ATOM      4  C   UNL     1      84.071  62.514   9.175  1.00  0.00     0.157 A 
ATOM      5  C   UNL     1      83.144  61.817   7.045  1.00  0.00     0.051 A 
ATOM      6  C   UNL     1      84.250  62.182   7.823  1.00  0.00     0.157 A 
ENDROOT
BRANCH   1   7
ATOM      7  C   UNL     1      80.335  62.110   9.606  1.00  0.00     0.010 C 
ATOM      8  C   UNL     1      80.151  62.122  10.934  1.00  0.00     0.025 C 
BRANCH   8   9
ATOM      9  C   UNL     1      78.810  62.084  11.542  1.00  0.00     0.064 C 
ATOM     10  O   UNL     1      77.790  62.438  10.892  1.00  0.00    -0.545 OA
ATOM     11  O   UNL     1      78.667  61.655  12.854  1.00  0.00    -0.545 OA
ENDBRANCH   8   9
ENDBRANCH   1   7
BRANCH   4  12
ATOM     12  O   UNL     1      85.152  62.875   9.978  1.00  0.00    -0.504 OA
ATOM     13  H   UNL     1      85.192  63.766  10.457  1.00  0.00     0.293 HD
ENDBRANCH   4  12
BRANCH   6  14
ATOM     14  O   UNL     1      85.525  62.209   7.258  1.00  0.00    -0.504 OA
ATOM     15  H   UNL     1      85.745  61.686   6.419  1.00  0.00     0.293 HD
ENDBRANCH   6  14
TORSDOF 4
ENDMDL
MODEL 7
REMARK VINA RESULT:    -5.887      3.751      4.928
REMARK INTER + INTRA:          -7.057
REMARK INTER:                  -6.930
REMARK INTRA:                  -0.127
REMARK UNBOUND:                -0.137
REMARK SMILES O=C([O-])C=Cc1ccc(O)c(O)c1
REMARK SMILES IDX 6 1 13 2 7 3 11 4 8 5 9 6 5 7 4 8 2 9 1 10 3 11 12 12 10 14
REMARK H PARENT 12 13 10 15
REMARK Flexibility Score: inf
ROOT
ATOM      1  C   UNL     1      80.120  62.133  10.642  1.00  0.00    -0.022 A 
ATOM      2  C   UNL     1      78.731  62.329  10.567  1.00  0.00     0.058 A 
ATOM      3  C   UNL     1      80.690  61.779  11.881  1.00  0.00     0.012 A 
ATOM      4  C   UNL     1      77.925  62.199  11.704  1.00  0.00     0.157 A 
ATOM      5  C   UNL     1      79.888  61.648  13.017  1.00  0.00     0.051 A 
ATOM      6  C   UNL     1      78.506  61.861  12.937  1.00  0.00     0.157 A 
ENDROOT
BRANCH   1   7
ATOM      7  C   UNL     1      80.925  62.273   9.403  1.00  0.00     0.010 C 
ATOM      8  C   UNL     1      80.774  61.491   8.325  1.00  0.00     0.025 C 
BRANCH   8   9
ATOM      9  C   UNL     1      81.600  61.651   7.115  1.00  0.00     0.064 C 
ATOM     10  O   UNL     1      81.098  61.546   5.964  1.00  0.00    -0.545 OA
ATOM     11  O   UNL     1      82.956  61.920   7.245  1.00  0.00    -0.545 OA
ENDBRANCH   8   9
ENDBRANCH   1   7
BRANCH   4  12
ATOM     12  O   UNL     1      76.552  62.412  11.589  1.00  0.00    -0.504 OA
ATOM     13  H   UNL     1      75.888  62.003  12.236  1.00  0.00     0.293 HD
ENDBRANCH   4  12
BRANCH   6  14
ATOM     14  O   UNL     1      77.709  61.731  14.073  1.00  0.00    -0.504 OA
ATOM     15  H   UNL     1      77.227  60.866  14.287  1.00  0.00     0.293 HD
ENDBRANCH   6  14
TORSDOF 4
ENDMDL
MODEL 8
REMARK VINA RESULT:    -5.809      3.836      5.050
REMARK INTER + INTRA:          -6.965
REMARK INTER:                  -6.838
REMARK INTRA:                  -0.126
REMARK UNBOUND:                -0.137
REMARK SMILES O=C([O-])C=Cc1ccc(O)c(O)c1
REMARK SMILES IDX 6 1 13 2 7 3 11 4 8 5 9 6 5 7 4 8 2 9 1 10 3 11 12 12 10 14
REMARK H PARENT 12 13 10 15
REMARK Flexibility Score: inf
ROOT
ATOM      1  C   UNL     1      79.477  62.255  10.115  1.00  0.00    -0.022 A 
ATOM      2  C   UNL     1      80.301  61.940  11.208  1.00  0.00     0.058 A 
ATOM      3  C   UNL     1      78.097  62.438  10.336  1.00  0.00     0.012 A 
ATOM      4  C   UNL     1      79.765  61.786  12.492  1.00  0.00     0.157 A 
ATOM      5  C   UNL     1      77.559  62.286  11.617  1.00  0.00     0.051 A 
ATOM      6  C   UNL     1      78.387  61.956  12.698  1.00  0.00     0.157 A 
ENDROOT
BRANCH   1   7
ATOM      7  C   UNL     1      80.100  62.416   8.778  1.00  0.00     0.010 C 
ATOM      8  C   UNL     1      80.906  61.504   8.217  1.00  0.00     0.025 C 
BRANCH   8   9
ATOM      9  C   UNL     1      81.517  61.704   6.891  1.00  0.00     0.064 C 
ATOM     10  O   UNL     1      82.768  61.780   6.755  1.00  0.00    -0.545 OA
ATOM     11  O   UNL     1      80.701  61.815   5.773  1.00  0.00    -0.545 OA
ENDBRANCH   8   9
ENDBRANCH   1   7
BRANCH   4  12
ATOM     12  O   UNL     1      80.617  61.464  13.548  1.00  0.00    -0.504 OA
ATOM     13  H   UNL     1      80.296  60.954  14.362  1.00  0.00     0.293 HD
ENDBRANCH   4  12
BRANCH   6  14
ATOM     14  O   UNL     1      77.846  61.804  13.973  1.00  0.00    -0.504 OA
ATOM     15  H   UNL     1      77.571  62.603  14.532  1.00  0.00     0.293 HD
ENDBRANCH   6  14
TORSDOF 4
ENDMDL
MODEL 9
REMARK VINA RESULT:    -5.754      2.642      3.270
REMARK INTER + INTRA:          -6.900
REMARK INTER:                  -6.767
REMARK INTRA:                  -0.133
REMARK UNBOUND:                -0.137
REMARK SMILES O=C([O-])C=Cc1ccc(O)c(O)c1
REMARK SMILES IDX 6 1 13 2 7 3 11 4 8 5 9 6 5 7 4 8 2 9 1 10 3 11 12 12 10 14
REMARK H PARENT 12 13 10 15
REMARK Flexibility Score: inf
ROOT
ATOM      1  C   UNL     1      80.432  62.004   7.937  1.00  0.00    -0.022 A 
ATOM      2  C   UNL     1      79.186  62.626   7.755  1.00  0.00     0.058 A 
ATOM      3  C   UNL     1      81.026  61.342   6.844  1.00  0.00     0.012 A 
ATOM      4  C   UNL     1      78.529  62.571   6.521  1.00  0.00     0.157 A 
ATOM      5  C   UNL     1      80.372  61.286   5.610  1.00  0.00     0.051 A 
ATOM      6  C   UNL     1      79.123  61.896   5.443  1.00  0.00     0.157 A 
ENDROOT
BRANCH   1   7
ATOM      7  C   UNL     1      81.089  62.102   9.264  1.00  0.00     0.010 C 
ATOM      8  C   UNL     1      80.457  62.488  10.381  1.00  0.00     0.025 C 
BRANCH   8   9
ATOM      9  C   UNL     1      81.145  62.585  11.680  1.00  0.00     0.064 C 
ATOM     10  O   UNL     1      82.090  63.400  11.858  1.00  0.00    -0.545 OA
ATOM     11  O   UNL     1      80.747  61.764  12.726  1.00  0.00    -0.545 OA
ENDBRANCH   8   9
ENDBRANCH   1   7
BRANCH   4  12
ATOM     12  O   UNL     1      77.288  63.194   6.386  1.00  0.00    -0.504 OA
ATOM     13  H   UNL     1      76.445  62.673   6.175  1.00  0.00     0.293 HD
ENDBRANCH   4  12
BRANCH   6  14
ATOM     14  O   UNL     1      78.473  61.837   4.211  1.00  0.00    -0.504 OA
ATOM     15  H   UNL     1      77.465  61.763   4.145  1.00  0.00     0.293 HD
ENDBRANCH   6  14
TORSDOF 4
ENDMDL
