MODEL 1
REMARK VINA RESULT:    -5.034      0.000      0.000
REMARK INTER + INTRA:         -11.663
REMARK INTER:                  -9.743
REMARK INTRA:                  -1.920
REMARK UNBOUND:                -1.920
REMARK SMILES CCCCCCCCCCCCCCCCCC(=O)[O-]
REMARK SMILES IDX 10 1 11 2 12 3 13 4 14 5 15 6 16 7 17 8 18 9 19 10 20 11
REMARK SMILES IDX 9 12 8 13 7 14 6 15 5 16 4 17 3 18 2 19 1 20
REMARK H PARENT
REMARK Flexibility Score: inf
ROOT
ATOM      1  C   UNL     1     137.837 135.726 141.594  1.00  0.00     0.000 C 
ENDROOT
BRANCH   1   2
ATOM      2  C   UNL     1     137.151 137.082 141.837  1.00  0.00     0.000 C 
BRANCH   2   3
ATOM      3  C   UNL     1     137.402 138.134 140.742  1.00  0.00     0.000 C 
BRANCH   3   4
ATOM      4  C   UNL     1     137.753 139.520 141.314  1.00  0.00     0.000 C 
BRANCH   4   5
ATOM      5  C   UNL     1     139.090 139.509 142.087  1.00  0.00     0.000 C 
BRANCH   5   6
ATOM      6  C   UNL     1     138.923 139.590 143.617  1.00  0.00     0.000 C 
BRANCH   6   7
ATOM      7  C   UNL     1     139.727 138.547 144.411  1.00  0.00     0.006 C 
BRANCH   7   8
ATOM      8  C   UNL     1     138.878 137.812 145.456  1.00  0.00     0.053 C 
BRANCH   8   9
ATOM      9  C   UNL     1     138.906 138.548 146.757  1.00  0.00     0.041 C 
ATOM     10  O   UNL     1     139.796 139.411 146.978  1.00  0.00    -0.550 OA
ATOM     11  O   UNL     1     137.919 138.318 147.707  1.00  0.00    -0.550 OA
ENDBRANCH   8   9
ENDBRANCH   7   8
ENDBRANCH   6   7
ENDBRANCH   5   6
ENDBRANCH   4   5
ENDBRANCH   3   4
ENDBRANCH   2   3
ENDBRANCH   1   2
BRANCH   1  12
ATOM     12  C   UNL     1     138.789 135.321 142.734  1.00  0.00     0.000 C 
BRANCH  12  13
ATOM     13  C   UNL     1     140.244 135.157 142.247  1.00  0.00    -0.000 C 
BRANCH  13  14
ATOM     14  C   UNL     1     140.685 136.235 141.242  1.00  0.00    -0.000 C 
BRANCH  14  15
ATOM     15  C   UNL     1     142.186 136.552 141.330  1.00  0.00    -0.000 C 
BRANCH  15  16
ATOM     16  C   UNL     1     143.066 135.289 141.377  1.00  0.00    -0.000 C 
BRANCH  16  17
ATOM     17  C   UNL     1     144.546 135.534 141.728  1.00  0.00    -0.000 C 
BRANCH  17  18
ATOM     18  C   UNL     1     145.288 134.325 142.328  1.00  0.00    -0.000 C 
BRANCH  18  19
ATOM     19  C   UNL     1     144.410 133.062 142.466  1.00  0.00    -0.003 C 
ATOM     20  C   UNL     1     144.711 132.271 143.739  1.00  0.00     0.004 C 
ENDBRANCH  18  19
ENDBRANCH  17  18
ENDBRANCH  16  17
ENDBRANCH  15  16
ENDBRANCH  14  15
ENDBRANCH  13  14
ENDBRANCH  12  13
ENDBRANCH   1  12
TORSDOF 16
ENDMDL
MODEL 2
REMARK VINA RESULT:    -4.943      4.243      5.757
REMARK INTER + INTRA:         -11.486
REMARK INTER:                 -10.651
REMARK INTRA:                  -0.835
REMARK UNBOUND:                -1.920
REMARK SMILES CCCCCCCCCCCCCCCCCC(=O)[O-]
REMARK SMILES IDX 10 1 11 2 12 3 13 4 14 5 15 6 16 7 17 8 18 9 19 10 20 11
REMARK SMILES IDX 9 12 8 13 7 14 6 15 5 16 4 17 3 18 2 19 1 20
REMARK H PARENT
REMARK Flexibility Score: inf
ROOT
ATOM      1  C   UNL     1     139.730 135.017 142.457  1.00  0.00     0.000 C 
ENDROOT
BRANCH   1   2
ATOM      2  C   UNL     1     138.228 135.350 142.393  1.00  0.00     0.000 C 
BRANCH   2   3
ATOM      3  C   UNL     1     137.867 136.509 141.447  1.00  0.00     0.000 C 
BRANCH   3   4
ATOM      4  C   UNL     1     136.715 136.160 140.487  1.00  0.00     0.000 C 
BRANCH   4   5
ATOM      5  C   UNL     1     135.343 136.606 141.038  1.00  0.00     0.000 C 
BRANCH   5   6
ATOM      6  C   UNL     1     134.243 135.536 140.906  1.00  0.00     0.000 C 
BRANCH   6   7
ATOM      7  C   UNL     1     133.140 135.865 139.887  1.00  0.00     0.006 C 
BRANCH   7   8
ATOM      8  C   UNL     1     132.107 134.740 139.744  1.00  0.00     0.053 C 
BRANCH   8   9
ATOM      9  C   UNL     1     130.877 135.061 140.531  1.00  0.00     0.041 C 
ATOM     10  O   UNL     1     130.637 134.454 141.608  1.00  0.00    -0.550 OA
ATOM     11  O   UNL     1     130.022 136.068 140.102  1.00  0.00    -0.550 OA
ENDBRANCH   8   9
ENDBRANCH   7   8
ENDBRANCH   6   7
ENDBRANCH   5   6
ENDBRANCH   4   5
ENDBRANCH   3   4
ENDBRANCH   2   3
ENDBRANCH   1   2
BRANCH   1  12
ATOM     12  C   UNL     1     140.598 136.000 141.651  1.00  0.00     0.000 C 
BRANCH  12  13
ATOM     13  C   UNL     1     142.075 135.559 141.592  1.00  0.00    -0.000 C 
BRANCH  13  14
ATOM     14  C   UNL     1     142.854 136.166 140.413  1.00  0.00    -0.000 C 
BRANCH  14  15
ATOM     15  C   UNL     1     144.343 136.380 140.729  1.00  0.00    -0.000 C 
BRANCH  15  16
ATOM     16  C   UNL     1     144.768 135.752 142.070  1.00  0.00    -0.000 C 
BRANCH  16  17
ATOM     17  C   UNL     1     145.337 134.323 141.973  1.00  0.00    -0.000 C 
BRANCH  17  18
ATOM     18  C   UNL     1     145.588 133.624 143.322  1.00  0.00    -0.000 C 
BRANCH  18  19
ATOM     19  C   UNL     1     144.804 132.305 143.495  1.00  0.00    -0.003 C 
ATOM     20  C   UNL     1     143.786 132.072 142.379  1.00  0.00     0.004 C 
ENDBRANCH  18  19
ENDBRANCH  17  18
ENDBRANCH  16  17
ENDBRANCH  15  16
ENDBRANCH  14  15
ENDBRANCH  13  14
ENDBRANCH  12  13
ENDBRANCH   1  12
TORSDOF 16
ENDMDL
MODEL 3
REMARK VINA RESULT:    -4.814      3.668      5.037
REMARK INTER + INTRA:         -11.237
REMARK INTER:                  -9.759
REMARK INTRA:                  -1.478
REMARK UNBOUND:                -1.920
REMARK SMILES CCCCCCCCCCCCCCCCCC(=O)[O-]
REMARK SMILES IDX 10 1 11 2 12 3 13 4 14 5 15 6 16 7 17 8 18 9 19 10 20 11
REMARK SMILES IDX 9 12 8 13 7 14 6 15 5 16 4 17 3 18 2 19 1 20
REMARK H PARENT
REMARK Flexibility Score: inf
ROOT
ATOM      1  C   UNL     1     140.719 136.731 141.993  1.00  0.00     0.000 C 
ENDROOT
BRANCH   1   2
ATOM      2  C   UNL     1     140.189 135.286 142.015  1.00  0.00     0.000 C 
BRANCH   2   3
ATOM      3  C   UNL     1     138.814 135.117 142.684  1.00  0.00     0.000 C 
BRANCH   3   4
ATOM      4  C   UNL     1     137.841 136.263 142.350  1.00  0.00     0.000 C 
BRANCH   4   5
ATOM      5  C   UNL     1     137.272 136.144 140.919  1.00  0.00     0.000 C 
BRANCH   5   6
ATOM      6  C   UNL     1     135.736 136.023 140.870  1.00  0.00     0.000 C 
BRANCH   6   7
ATOM      7  C   UNL     1     135.076 135.631 142.201  1.00  0.00     0.006 C 
BRANCH   7   8
ATOM      8  C   UNL     1     133.893 134.670 142.018  1.00  0.00     0.053 C 
BRANCH   8   9
ATOM      9  C   UNL     1     132.832 135.309 141.180  1.00  0.00     0.041 C 
ATOM     10  O   UNL     1     132.265 136.364 141.570  1.00  0.00    -0.550 OA
ATOM     11  O   UNL     1     132.504 134.767 139.944  1.00  0.00    -0.550 OA
ENDBRANCH   8   9
ENDBRANCH   7   8
ENDBRANCH   6   7
ENDBRANCH   5   6
ENDBRANCH   4   5
ENDBRANCH   3   4
ENDBRANCH   2   3
ENDBRANCH   1   2
BRANCH   1  12
ATOM     12  C   UNL     1     141.018 137.241 140.572  1.00  0.00     0.000 C 
BRANCH  12  13
ATOM     13  C   UNL     1     142.442 137.821 140.448  1.00  0.00    -0.000 C 
BRANCH  13  14
ATOM     14  C   UNL     1     143.304 137.121 139.384  1.00  0.00    -0.000 C 
BRANCH  14  15
ATOM     15  C   UNL     1     144.452 136.299 139.993  1.00  0.00    -0.000 C 
BRANCH  15  16
ATOM     16  C   UNL     1     144.428 136.284 141.533  1.00  0.00    -0.000 C 
BRANCH  16  17
ATOM     17  C   UNL     1     144.717 134.915 142.179  1.00  0.00    -0.000 C 
BRANCH  17  18
ATOM     18  C   UNL     1     143.620 133.852 141.985  1.00  0.00    -0.000 C 
BRANCH  18  19
ATOM     19  C   UNL     1     143.916 132.514 142.695  1.00  0.00    -0.003 C 
ATOM     20  C   UNL     1     145.411 132.284 142.921  1.00  0.00     0.004 C 
ENDBRANCH  18  19
ENDBRANCH  17  18
ENDBRANCH  16  17
ENDBRANCH  15  16
ENDBRANCH  14  15
ENDBRANCH  13  14
ENDBRANCH  12  13
ENDBRANCH   1  12
TORSDOF 16
ENDMDL
MODEL 4
REMARK VINA RESULT:    -4.808      3.797      5.123
REMARK INTER + INTRA:         -11.226
REMARK INTER:                 -10.305
REMARK INTRA:                  -0.920
REMARK UNBOUND:                -1.920
REMARK SMILES CCCCCCCCCCCCCCCCCC(=O)[O-]
REMARK SMILES IDX 10 1 11 2 12 3 13 4 14 5 15 6 16 7 17 8 18 9 19 10 20 11
REMARK SMILES IDX 9 12 8 13 7 14 6 15 5 16 4 17 3 18 2 19 1 20
REMARK H PARENT
REMARK Flexibility Score: inf
ROOT
ATOM      1  C   UNL     1     137.804 135.419 142.374  1.00  0.00     0.000 C 
ENDROOT
BRANCH   1   2
ATOM      2  C   UNL     1     136.385 135.544 141.792  1.00  0.00     0.000 C 
BRANCH   2   3
ATOM      3  C   UNL     1     136.303 136.304 140.457  1.00  0.00     0.000 C 
BRANCH   3   4
ATOM      4  C   UNL     1     135.560 135.515 139.364  1.00  0.00     0.000 C 
BRANCH   4   5
ATOM      5  C   UNL     1     134.412 134.659 139.943  1.00  0.00     0.000 C 
BRANCH   5   6
ATOM      6  C   UNL     1     133.226 135.488 140.474  1.00  0.00     0.000 C 
BRANCH   6   7
ATOM      7  C   UNL     1     132.381 134.790 141.553  1.00  0.00     0.006 C 
BRANCH   7   8
ATOM      8  C   UNL     1     132.930 135.004 142.969  1.00  0.00     0.053 C 
BRANCH   8   9
ATOM      9  C   UNL     1     131.934 134.543 143.985  1.00  0.00     0.041 C 
ATOM     10  O   UNL     1     131.587 133.333 144.030  1.00  0.00    -0.550 OA
ATOM     11  O   UNL     1     131.427 135.440 144.917  1.00  0.00    -0.550 OA
ENDBRANCH   8   9
ENDBRANCH   7   8
ENDBRANCH   6   7
ENDBRANCH   5   6
ENDBRANCH   4   5
ENDBRANCH   3   4
ENDBRANCH   2   3
ENDBRANCH   1   2
BRANCH   1  12
ATOM     12  C   UNL     1     138.284 136.705 143.070  1.00  0.00     0.000 C 
BRANCH  12  13
ATOM     13  C   UNL     1     139.783 136.975 142.826  1.00  0.00    -0.000 C 
BRANCH  13  14
ATOM     14  C   UNL     1     140.476 135.892 141.981  1.00  0.00    -0.000 C 
BRANCH  14  15
ATOM     15  C   UNL     1     141.408 136.479 140.909  1.00  0.00    -0.000 C 
BRANCH  15  16
ATOM     16  C   UNL     1     142.899 136.365 141.281  1.00  0.00    -0.000 C 
BRANCH  16  17
ATOM     17  C   UNL     1     143.375 134.947 141.651  1.00  0.00    -0.000 C 
BRANCH  17  18
ATOM     18  C   UNL     1     144.842 134.846 142.110  1.00  0.00    -0.000 C 
BRANCH  18  19
ATOM     19  C   UNL     1     145.179 133.524 142.833  1.00  0.00    -0.003 C 
ATOM     20  C   UNL     1     144.076 132.475 142.689  1.00  0.00     0.004 C 
ENDBRANCH  18  19
ENDBRANCH  17  18
ENDBRANCH  16  17
ENDBRANCH  15  16
ENDBRANCH  14  15
ENDBRANCH  13  14
ENDBRANCH  12  13
ENDBRANCH   1  12
TORSDOF 16
ENDMDL
MODEL 5
REMARK VINA RESULT:    -4.784      2.242      2.957
REMARK INTER + INTRA:         -11.180
REMARK INTER:                  -9.576
REMARK INTRA:                  -1.603
REMARK UNBOUND:                -1.920
REMARK SMILES CCCCCCCCCCCCCCCCCC(=O)[O-]
REMARK SMILES IDX 10 1 11 2 12 3 13 4 14 5 15 6 16 7 17 8 18 9 19 10 20 11
REMARK SMILES IDX 9 12 8 13 7 14 6 15 5 16 4 17 3 18 2 19 1 20
REMARK H PARENT
REMARK Flexibility Score: inf
ROOT
ATOM      1  C   UNL     1     138.535 135.963 142.700  1.00  0.00     0.000 C 
ENDROOT
BRANCH   1   2
ATOM      2  C   UNL     1     137.112 135.654 142.201  1.00  0.00     0.000 C 
BRANCH   2   3
ATOM      3  C   UNL     1     136.598 136.599 141.101  1.00  0.00     0.000 C 
BRANCH   3   4
ATOM      4  C   UNL     1     137.732 137.199 140.250  1.00  0.00     0.000 C 
BRANCH   4   5
ATOM      5  C   UNL     1     137.721 138.743 140.273  1.00  0.00     0.000 C 
BRANCH   5   6
ATOM      6  C   UNL     1     138.750 139.357 141.242  1.00  0.00     0.000 C 
BRANCH   6   7
ATOM      7  C   UNL     1     138.143 140.095 142.447  1.00  0.00     0.006 C 
BRANCH   7   8
ATOM      8  C   UNL     1     137.278 141.294 142.036  1.00  0.00     0.053 C 
BRANCH   8   9
ATOM      9  C   UNL     1     137.652 142.501 142.837  1.00  0.00     0.041 C 
ATOM     10  O   UNL     1     138.016 142.378 144.036  1.00  0.00    -0.550 OA
ATOM     11  O   UNL     1     137.647 143.756 142.243  1.00  0.00    -0.550 OA
ENDBRANCH   8   9
ENDBRANCH   7   8
ENDBRANCH   6   7
ENDBRANCH   5   6
ENDBRANCH   4   5
ENDBRANCH   3   4
ENDBRANCH   2   3
ENDBRANCH   1   2
BRANCH   1  12
ATOM     12  C   UNL     1     139.442 134.720 142.740  1.00  0.00     0.000 C 
BRANCH  12  13
ATOM     13  C   UNL     1     140.813 134.978 142.082  1.00  0.00    -0.000 C 
BRANCH  13  14
ATOM     14  C   UNL     1     140.973 136.403 141.526  1.00  0.00    -0.000 C 
BRANCH  14  15
ATOM     15  C   UNL     1     142.389 136.681 140.997  1.00  0.00    -0.000 C 
BRANCH  15  16
ATOM     16  C   UNL     1     143.303 135.441 141.047  1.00  0.00    -0.000 C 
BRANCH  16  17
ATOM     17  C   UNL     1     144.615 135.625 141.834  1.00  0.00    -0.000 C 
BRANCH  17  18
ATOM     18  C   UNL     1     145.272 134.323 142.328  1.00  0.00    -0.000 C 
BRANCH  18  19
ATOM     19  C   UNL     1     144.266 133.186 142.610  1.00  0.00    -0.003 C 
ATOM     20  C   UNL     1     144.875 132.050 143.433  1.00  0.00     0.004 C 
ENDBRANCH  18  19
ENDBRANCH  17  18
ENDBRANCH  16  17
ENDBRANCH  15  16
ENDBRANCH  14  15
ENDBRANCH  13  14
ENDBRANCH  12  13
ENDBRANCH   1  12
TORSDOF 16
ENDMDL
MODEL 6
REMARK VINA RESULT:    -4.749      2.688      5.106
REMARK INTER + INTRA:         -11.110
REMARK INTER:                  -8.988
REMARK INTRA:                  -2.122
REMARK UNBOUND:                -1.920
REMARK SMILES CCCCCCCCCCCCCCCCCC(=O)[O-]
REMARK SMILES IDX 10 1 11 2 12 3 13 4 14 5 15 6 16 7 17 8 18 9 19 10 20 11
REMARK SMILES IDX 9 12 8 13 7 14 6 15 5 16 4 17 3 18 2 19 1 20
REMARK H PARENT
REMARK Flexibility Score: inf
ROOT
ATOM      1  C   UNL     1     143.028 135.220 141.257  1.00  0.00     0.000 C 
ENDROOT
BRANCH   1   2
ATOM      2  C   UNL     1     141.800 136.113 141.509  1.00  0.00     0.000 C 
BRANCH   2   3
ATOM      3  C   UNL     1     140.524 135.351 141.909  1.00  0.00     0.000 C 
BRANCH   3   4
ATOM      4  C   UNL     1     139.518 136.230 142.674  1.00  0.00     0.000 C 
BRANCH   4   5
ATOM      5  C   UNL     1     139.881 137.729 142.600  1.00  0.00     0.000 C 
BRANCH   5   6
ATOM      6  C   UNL     1     139.891 138.435 143.970  1.00  0.00     0.000 C 
BRANCH   6   7
ATOM      7  C   UNL     1     139.445 137.558 145.151  1.00  0.00     0.006 C 
BRANCH   7   8
ATOM      8  C   UNL     1     138.225 138.127 145.887  1.00  0.00     0.053 C 
BRANCH   8   9
ATOM      9  C   UNL     1     137.128 138.428 144.917  1.00  0.00     0.041 C 
ATOM     10  O   UNL     1     136.797 139.620 144.683  1.00  0.00    -0.550 OA
ATOM     11  O   UNL     1     136.505 137.393 144.231  1.00  0.00    -0.550 OA
ENDBRANCH   8   9
ENDBRANCH   7   8
ENDBRANCH   6   7
ENDBRANCH   5   6
ENDBRANCH   4   5
ENDBRANCH   3   4
ENDBRANCH   2   3
ENDBRANCH   1   2
BRANCH   1  12
ATOM     12  C   UNL     1     144.347 135.870 141.712  1.00  0.00     0.000 C 
BRANCH  12  13
ATOM     13  C   UNL     1     145.013 136.687 140.585  1.00  0.00    -0.000 C 
BRANCH  13  14
ATOM     14  C   UNL     1     145.024 138.203 140.844  1.00  0.00    -0.000 C 
BRANCH  14  15
ATOM     15  C   UNL     1     144.637 138.564 142.287  1.00  0.00    -0.000 C 
BRANCH  15  16
ATOM     16  C   UNL     1     143.278 139.282 142.383  1.00  0.00    -0.000 C 
BRANCH  16  17
ATOM     17  C   UNL     1     142.658 139.695 141.034  1.00  0.00    -0.000 C 
BRANCH  17  18
ATOM     18  C   UNL     1     141.819 140.986 141.065  1.00  0.00    -0.000 C 
BRANCH  18  19
ATOM     19  C   UNL     1     142.372 142.109 140.161  1.00  0.00    -0.003 C 
ATOM     20  C   UNL     1     143.898 142.106 140.083  1.00  0.00     0.004 C 
ENDBRANCH  18  19
ENDBRANCH  17  18
ENDBRANCH  16  17
ENDBRANCH  15  16
ENDBRANCH  14  15
ENDBRANCH  13  14
ENDBRANCH  12  13
ENDBRANCH   1  12
TORSDOF 16
ENDMDL
MODEL 7
REMARK VINA RESULT:    -4.713      1.508      2.105
REMARK INTER + INTRA:         -11.042
REMARK INTER:                 -10.016
REMARK INTRA:                  -1.026
REMARK UNBOUND:                -1.920
REMARK SMILES CCCCCCCCCCCCCCCCCC(=O)[O-]
REMARK SMILES IDX 10 1 11 2 12 3 13 4 14 5 15 6 16 7 17 8 18 9 19 10 20 11
REMARK SMILES IDX 9 12 8 13 7 14 6 15 5 16 4 17 3 18 2 19 1 20
REMARK H PARENT
REMARK Flexibility Score: inf
ROOT
ATOM      1  C   UNL     1     139.068 136.157 142.478  1.00  0.00     0.000 C 
ENDROOT
BRANCH   1   2
ATOM      2  C   UNL     1     137.672 135.697 142.021  1.00  0.00     0.000 C 
BRANCH   2   3
ATOM      3  C   UNL     1     137.074 136.514 140.862  1.00  0.00     0.000 C 
BRANCH   3   4
ATOM      4  C   UNL     1     136.023 137.537 141.331  1.00  0.00     0.000 C 
BRANCH   4   5
ATOM      5  C   UNL     1     135.952 137.632 142.871  1.00  0.00     0.000 C 
BRANCH   5   6
ATOM      6  C   UNL     1     135.936 139.078 143.403  1.00  0.00     0.000 C 
BRANCH   6   7
ATOM      7  C   UNL     1     136.620 139.273 144.766  1.00  0.00     0.006 C 
BRANCH   7   8
ATOM      8  C   UNL     1     137.377 138.024 145.236  1.00  0.00     0.053 C 
BRANCH   8   9
ATOM      9  C   UNL     1     138.221 138.347 146.427  1.00  0.00     0.041 C 
ATOM     10  O   UNL     1     137.794 138.115 147.589  1.00  0.00    -0.550 OA
ATOM     11  O   UNL     1     139.501 138.858 146.254  1.00  0.00    -0.550 OA
ENDBRANCH   8   9
ENDBRANCH   7   8
ENDBRANCH   6   7
ENDBRANCH   5   6
ENDBRANCH   4   5
ENDBRANCH   3   4
ENDBRANCH   2   3
ENDBRANCH   1   2
BRANCH   1  12
ATOM     12  C   UNL     1     140.044 136.369 141.307  1.00  0.00     0.000 C 
BRANCH  12  13
ATOM     13  C   UNL     1     141.447 135.803 141.608  1.00  0.00    -0.000 C 
BRANCH  13  14
ATOM     14  C   UNL     1     142.590 136.616 140.978  1.00  0.00    -0.000 C 
BRANCH  14  15
ATOM     15  C   UNL     1     143.863 135.784 140.757  1.00  0.00    -0.000 C 
BRANCH  15  16
ATOM     16  C   UNL     1     144.631 135.503 142.062  1.00  0.00    -0.000 C 
BRANCH  16  17
ATOM     17  C   UNL     1     145.494 134.226 142.053  1.00  0.00    -0.000 C 
BRANCH  17  18
ATOM     18  C   UNL     1     145.641 133.523 143.415  1.00  0.00    -0.000 C 
BRANCH  18  19
ATOM     19  C   UNL     1     144.687 132.323 143.602  1.00  0.00    -0.003 C 
ATOM     20  C   UNL     1     143.793 132.084 142.385  1.00  0.00     0.004 C 
ENDBRANCH  18  19
ENDBRANCH  17  18
ENDBRANCH  16  17
ENDBRANCH  15  16
ENDBRANCH  14  15
ENDBRANCH  13  14
ENDBRANCH  12  13
ENDBRANCH   1  12
TORSDOF 16
ENDMDL
MODEL 8
REMARK VINA RESULT:    -4.675      1.512      2.946
REMARK INTER + INTRA:         -10.967
REMARK INTER:                  -9.684
REMARK INTRA:                  -1.284
REMARK UNBOUND:                -1.920
REMARK SMILES CCCCCCCCCCCCCCCCCC(=O)[O-]
REMARK SMILES IDX 10 1 11 2 12 3 13 4 14 5 15 6 16 7 17 8 18 9 19 10 20 11
REMARK SMILES IDX 9 12 8 13 7 14 6 15 5 16 4 17 3 18 2 19 1 20
REMARK H PARENT
REMARK Flexibility Score: inf
ROOT
ATOM      1  C   UNL     1     140.177 137.626 139.274  1.00  0.00     0.000 C 
ENDROOT
BRANCH   1   2
ATOM      2  C   UNL     1     140.429 137.488 140.786  1.00  0.00     0.000 C 
BRANCH   2   3
ATOM      3  C   UNL     1     140.724 136.054 141.260  1.00  0.00     0.000 C 
BRANCH   3   4
ATOM      4  C   UNL     1     139.842 135.624 142.447  1.00  0.00     0.000 C 
BRANCH   4   5
ATOM      5  C   UNL     1     138.340 135.850 142.167  1.00  0.00     0.000 C 
BRANCH   5   6
ATOM      6  C   UNL     1     137.681 136.878 143.108  1.00  0.00     0.000 C 
BRANCH   6   7
ATOM      7  C   UNL     1     138.584 137.388 144.243  1.00  0.00     0.006 C 
BRANCH   7   8
ATOM      8  C   UNL     1     137.913 138.473 145.094  1.00  0.00     0.053 C 
BRANCH   8   9
ATOM      9  C   UNL     1     138.615 138.608 146.408  1.00  0.00     0.041 C 
ATOM     10  O   UNL     1     139.662 139.302 146.500  1.00  0.00    -0.550 OA
ATOM     11  O   UNL     1     138.084 138.009 147.544  1.00  0.00    -0.550 OA
ENDBRANCH   8   9
ENDBRANCH   7   8
ENDBRANCH   6   7
ENDBRANCH   5   6
ENDBRANCH   4   5
ENDBRANCH   3   4
ENDBRANCH   2   3
ENDBRANCH   1   2
BRANCH   1  12
ATOM     12  C   UNL     1     141.463 137.505 138.437  1.00  0.00     0.000 C 
BRANCH  12  13
ATOM     13  C   UNL     1     142.728 137.815 139.265  1.00  0.00    -0.000 C 
BRANCH  13  14
ATOM     14  C   UNL     1     143.814 136.730 139.162  1.00  0.00    -0.000 C 
BRANCH  14  15
ATOM     15  C   UNL     1     144.887 136.856 140.255  1.00  0.00    -0.000 C 
BRANCH  15  16
ATOM     16  C   UNL     1     144.401 136.371 141.633  1.00  0.00    -0.000 C 
BRANCH  16  17
ATOM     17  C   UNL     1     144.287 134.842 141.788  1.00  0.00    -0.000 C 
BRANCH  17  18
ATOM     18  C   UNL     1     145.305 134.202 142.749  1.00  0.00    -0.000 C 
BRANCH  18  19
ATOM     19  C   UNL     1     145.238 132.660 142.790  1.00  0.00    -0.003 C 
ATOM     20  C   UNL     1     143.870 132.117 142.376  1.00  0.00     0.004 C 
ENDBRANCH  18  19
ENDBRANCH  17  18
ENDBRANCH  16  17
ENDBRANCH  15  16
ENDBRANCH  14  15
ENDBRANCH  13  14
ENDBRANCH  12  13
ENDBRANCH   1  12
TORSDOF 16
ENDMDL
MODEL 9
REMARK VINA RESULT:    -4.514      3.197      5.336
REMARK INTER + INTRA:         -10.657
REMARK INTER:                  -8.567
REMARK INTRA:                  -2.091
REMARK UNBOUND:                -1.920
REMARK SMILES CCCCCCCCCCCCCCCCCC(=O)[O-]
REMARK SMILES IDX 10 1 11 2 12 3 13 4 14 5 15 6 16 7 17 8 18 9 19 10 20 11
REMARK SMILES IDX 9 12 8 13 7 14 6 15 5 16 4 17 3 18 2 19 1 20
REMARK H PARENT
REMARK Flexibility Score: inf
ROOT
ATOM      1  C   UNL     1     143.382 139.863 142.005  1.00  0.00     0.000 C 
ENDROOT
BRANCH   1   2
ATOM      2  C   UNL     1     143.940 141.092 141.265  1.00  0.00     0.000 C 
BRANCH   2   3
ATOM      3  C   UNL     1     142.995 141.686 140.206  1.00  0.00     0.000 C 
BRANCH   3   4
ATOM      4  C   UNL     1     142.033 140.643 139.609  1.00  0.00     0.000 C 
BRANCH   4   5
ATOM      5  C   UNL     1     140.565 141.123 139.636  1.00  0.00     0.000 C 
BRANCH   5   6
ATOM      6  C   UNL     1     140.119 141.681 141.002  1.00  0.00     0.000 C 
BRANCH   6   7
ATOM      7  C   UNL     1     138.600 141.667 141.241  1.00  0.00     0.006 C 
BRANCH   7   8
ATOM      8  C   UNL     1     138.066 143.013 141.748  1.00  0.00     0.053 C 
BRANCH   8   9
ATOM      9  C   UNL     1     137.870 142.967 143.230  1.00  0.00     0.041 C 
ATOM     10  O   UNL     1     137.484 143.993 143.851  1.00  0.00    -0.550 OA
ATOM     11  O   UNL     1     138.064 141.777 143.920  1.00  0.00    -0.550 OA
ENDBRANCH   8   9
ENDBRANCH   7   8
ENDBRANCH   6   7
ENDBRANCH   5   6
ENDBRANCH   4   5
ENDBRANCH   3   4
ENDBRANCH   2   3
ENDBRANCH   1   2
BRANCH   1  12
ATOM     12  C   UNL     1     144.458 138.805 142.309  1.00  0.00     0.000 C 
BRANCH  12  13
ATOM     13  C   UNL     1     144.856 138.002 141.053  1.00  0.00    -0.000 C 
BRANCH  13  14
ATOM     14  C   UNL     1     144.655 136.484 141.201  1.00  0.00    -0.000 C 
BRANCH  14  15
ATOM     15  C   UNL     1     143.173 136.080 141.240  1.00  0.00    -0.000 C 
BRANCH  15  16
ATOM     16  C   UNL     1     142.330 136.785 140.161  1.00  0.00    -0.000 C 
BRANCH  16  17
ATOM     17  C   UNL     1     140.882 137.113 140.572  1.00  0.00    -0.000 C 
BRANCH  17  18
ATOM     18  C   UNL     1     140.649 137.275 142.085  1.00  0.00    -0.000 C 
BRANCH  18  19
ATOM     19  C   UNL     1     139.525 136.376 142.643  1.00  0.00    -0.003 C 
ATOM     20  C   UNL     1     139.849 134.886 142.527  1.00  0.00     0.004 C 
ENDBRANCH  18  19
ENDBRANCH  17  18
ENDBRANCH  16  17
ENDBRANCH  15  16
ENDBRANCH  14  15
ENDBRANCH  13  14
ENDBRANCH  12  13
ENDBRANCH   1  12
TORSDOF 16
ENDMDL
