MODEL 1
REMARK VINA RESULT:    -1.652      0.000      0.000
REMARK INTER + INTRA:          -5.524
REMARK INTER:                  -3.777
REMARK INTRA:                  -1.747
REMARK UNBOUND:                -1.747
REMARK SMILES CCCCCCCCCCCCCCCCCCCCCCCC(=O)[O-]
REMARK SMILES IDX 13 1 14 2 15 3 16 4 17 5 18 6 19 7 20 8 21 9 22 10 23 11
REMARK SMILES IDX 24 12 25 13 26 14 12 15 11 16 10 17 9 18 8 19 7 20 6 21 5 22
REMARK SMILES IDX 4 23 3 24 2 25 1 26
REMARK H PARENT
REMARK Flexibility Score: inf
ROOT
ATOM      1  C   UNL     1      25.053  26.020  22.301  1.00  0.00     0.000 C 
ENDROOT
BRANCH   1   2
ATOM      2  C   UNL     1      25.611  27.375  22.775  1.00  0.00     0.000 C 
BRANCH   2   3
ATOM      3  C   UNL     1      27.041  27.264  23.342  1.00  0.00     0.000 C 
BRANCH   3   4
ATOM      4  C   UNL     1      27.643  28.604  23.804  1.00  0.00     0.000 C 
BRANCH   4   5
ATOM      5  C   UNL     1      27.490  28.848  25.317  1.00  0.00     0.000 C 
BRANCH   5   6
ATOM      6  C   UNL     1      28.125  30.173  25.769  1.00  0.00     0.000 C 
BRANCH   6   7
ATOM      7  C   UNL     1      27.131  31.350  25.708  1.00  0.00     0.000 C 
BRANCH   7   8
ATOM      8  C   UNL     1      27.447  32.333  24.568  1.00  0.00     0.000 C 
BRANCH   8   9
ATOM      9  C   UNL     1      28.021  33.668  25.079  1.00  0.00     0.000 C 
BRANCH   9  10
ATOM     10  C   UNL     1      27.453  34.885  24.322  1.00  0.00     0.006 C 
BRANCH  10  11
ATOM     11  C   UNL     1      28.090  35.123  22.941  1.00  0.00     0.053 C 
BRANCH  11  12
ATOM     12  C   UNL     1      27.778  36.487  22.406  1.00  0.00     0.041 C 
ATOM     13  O   UNL     1      27.436  36.632  21.202  1.00  0.00    -0.550 OA
ATOM     14  O   UNL     1      27.892  37.601  23.230  1.00  0.00    -0.550 OA
ENDBRANCH  11  12
ENDBRANCH  10  11
ENDBRANCH   9  10
ENDBRANCH   8   9
ENDBRANCH   7   8
ENDBRANCH   6   7
ENDBRANCH   5   6
ENDBRANCH   4   5
ENDBRANCH   3   4
ENDBRANCH   2   3
ENDBRANCH   1   2
BRANCH   1  15
ATOM     15  C   UNL     1      23.871  26.166  21.319  1.00  0.00     0.000 C 
BRANCH  15  16
ATOM     16  C   UNL     1      23.752  25.024  20.289  1.00  0.00     0.000 C 
BRANCH  16  17
ATOM     17  C   UNL     1      24.774  23.879  20.433  1.00  0.00     0.000 C 
BRANCH  17  18
ATOM     18  C   UNL     1      25.625  23.588  19.180  1.00  0.00    -0.000 C 
BRANCH  18  19
ATOM     19  C   UNL     1      26.884  24.468  19.092  1.00  0.00    -0.000 C 
BRANCH  19  20
ATOM     20  C   UNL     1      27.856  24.229  20.260  1.00  0.00    -0.000 C 
BRANCH  20  21
ATOM     21  C   UNL     1      27.929  22.754  20.681  1.00  0.00    -0.000 C 
BRANCH  21  22
ATOM     22  C   UNL     1      27.742  22.602  22.197  1.00  0.00    -0.000 C 
BRANCH  22  23
ATOM     23  C   UNL     1      27.707  23.961  22.923  1.00  0.00    -0.000 C 
BRANCH  23  24
ATOM     24  C   UNL     1      28.100  23.887  24.413  1.00  0.00    -0.000 C 
BRANCH  24  25
ATOM     25  C   UNL     1      27.056  23.183  25.308  1.00  0.00    -0.003 C 
ATOM     26  C   UNL     1      27.227  23.523  26.790  1.00  0.00     0.004 C 
ENDBRANCH  24  25
ENDBRANCH  23  24
ENDBRANCH  22  23
ENDBRANCH  21  22
ENDBRANCH  20  21
ENDBRANCH  19  20
ENDBRANCH  18  19
ENDBRANCH  17  18
ENDBRANCH  16  17
ENDBRANCH  15  16
ENDBRANCH   1  15
TORSDOF 22
ENDMDL
MODEL 2
REMARK VINA RESULT:    -1.102      4.960      8.768
REMARK INTER + INTRA:          -4.268
REMARK INTER:                  -3.120
REMARK INTRA:                  -1.147
REMARK UNBOUND:                -1.747
REMARK SMILES CCCCCCCCCCCCCCCCCCCCCCCC(=O)[O-]
REMARK SMILES IDX 13 1 14 2 15 3 16 4 17 5 18 6 19 7 20 8 21 9 22 10 23 11
REMARK SMILES IDX 24 12 25 13 26 14 12 15 11 16 10 17 9 18 8 19 7 20 6 21 5 22
REMARK SMILES IDX 4 23 3 24 2 25 1 26
REMARK H PARENT
REMARK Flexibility Score: inf
ROOT
ATOM      1  C   UNL     1      23.930  26.376  21.933  1.00  0.00     0.000 C 
ENDROOT
BRANCH   1   2
ATOM      2  C   UNL     1      22.942  25.848  20.875  1.00  0.00     0.000 C 
BRANCH   2   3
ATOM      3  C   UNL     1      23.326  24.451  20.347  1.00  0.00     0.000 C 
BRANCH   3   4
ATOM      4  C   UNL     1      23.782  23.466  21.440  1.00  0.00     0.000 C 
BRANCH   4   5
ATOM      5  C   UNL     1      25.095  22.741  21.093  1.00  0.00     0.000 C 
BRANCH   5   6
ATOM      6  C   UNL     1      25.671  21.959  22.285  1.00  0.00     0.000 C 
BRANCH   6   7
ATOM      7  C   UNL     1      27.211  21.899  22.257  1.00  0.00     0.000 C 
BRANCH   7   8
ATOM      8  C   UNL     1      27.862  22.935  23.189  1.00  0.00     0.000 C 
BRANCH   8   9
ATOM      9  C   UNL     1      27.910  22.467  24.655  1.00  0.00     0.000 C 
BRANCH   9  10
ATOM     10  C   UNL     1      28.026  23.640  25.648  1.00  0.00     0.006 C 
BRANCH  10  11
ATOM     11  C   UNL     1      27.403  23.363  27.028  1.00  0.00     0.053 C 
BRANCH  11  12
ATOM     12  C   UNL     1      26.288  22.365  26.950  1.00  0.00     0.041 C 
ATOM     13  O   UNL     1      25.795  21.883  28.005  1.00  0.00    -0.550 OA
ATOM     14  O   UNL     1      25.812  21.949  25.712  1.00  0.00    -0.550 OA
ENDBRANCH  11  12
ENDBRANCH  10  11
ENDBRANCH   9  10
ENDBRANCH   8   9
ENDBRANCH   7   8
ENDBRANCH   6   7
ENDBRANCH   5   6
ENDBRANCH   4   5
ENDBRANCH   3   4
ENDBRANCH   2   3
ENDBRANCH   1   2
BRANCH   1  15
ATOM     15  C   UNL     1      23.763  27.884  22.214  1.00  0.00     0.000 C 
BRANCH  15  16
ATOM     16  C   UNL     1      25.068  28.611  22.598  1.00  0.00     0.000 C 
BRANCH  16  17
ATOM     17  C   UNL     1      25.144  29.135  24.045  1.00  0.00     0.000 C 
BRANCH  17  18
ATOM     18  C   UNL     1      26.166  30.265  24.288  1.00  0.00    -0.000 C 
BRANCH  18  19
ATOM     19  C   UNL     1      27.142  29.954  25.437  1.00  0.00    -0.000 C 
BRANCH  19  20
ATOM     20  C   UNL     1      28.124  28.823  25.089  1.00  0.00    -0.000 C 
BRANCH  20  21
ATOM     21  C   UNL     1      27.511  27.426  25.270  1.00  0.00    -0.000 C 
BRANCH  21  22
ATOM     22  C   UNL     1      28.124  26.421  24.284  1.00  0.00    -0.000 C 
BRANCH  22  23
ATOM     23  C   UNL     1      28.037  26.906  22.823  1.00  0.00    -0.000 C 
BRANCH  23  24
ATOM     24  C   UNL     1      27.375  25.894  21.864  1.00  0.00    -0.000 C 
BRANCH  24  25
ATOM     25  C   UNL     1      28.052  25.801  20.479  1.00  0.00    -0.003 C 
ATOM     26  C   UNL     1      27.674  24.524  19.725  1.00  0.00     0.004 C 
ENDBRANCH  24  25
ENDBRANCH  23  24
ENDBRANCH  22  23
ENDBRANCH  21  22
ENDBRANCH  20  21
ENDBRANCH  19  20
ENDBRANCH  18  19
ENDBRANCH  17  18
ENDBRANCH  16  17
ENDBRANCH  15  16
ENDBRANCH   1  15
TORSDOF 22
ENDMDL
MODEL 3
REMARK VINA RESULT:    -0.531      3.686     10.021
REMARK INTER + INTRA:          -2.960
REMARK INTER:                  -4.749
REMARK INTRA:                   1.789
REMARK UNBOUND:                -1.747
REMARK SMILES CCCCCCCCCCCCCCCCCCCCCCCC(=O)[O-]
REMARK SMILES IDX 13 1 14 2 15 3 16 4 17 5 18 6 19 7 20 8 21 9 22 10 23 11
REMARK SMILES IDX 24 12 25 13 26 14 12 15 11 16 10 17 9 18 8 19 7 20 6 21 5 22
REMARK SMILES IDX 4 23 3 24 2 25 1 26
REMARK H PARENT
REMARK Flexibility Score: inf
ROOT
ATOM      1  C   UNL     1      25.709  27.024  22.956  1.00  0.00     0.000 C 
ENDROOT
BRANCH   1   2
ATOM      2  C   UNL     1      26.506  25.985  22.144  1.00  0.00     0.000 C 
BRANCH   2   3
ATOM      3  C   UNL     1      27.620  25.312  22.971  1.00  0.00     0.000 C 
BRANCH   3   4
ATOM      4  C   UNL     1      27.617  25.693  24.463  1.00  0.00     0.000 C 
BRANCH   4   5
ATOM      5  C   UNL     1      27.034  24.592  25.368  1.00  0.00     0.000 C 
BRANCH   5   6
ATOM      6  C   UNL     1      27.856  23.293  25.324  1.00  0.00     0.000 C 
BRANCH   6   7
ATOM      7  C   UNL     1      27.566  22.459  24.060  1.00  0.00     0.000 C 
BRANCH   7   8
ATOM      8  C   UNL     1      26.069  22.410  23.714  1.00  0.00     0.000 C 
BRANCH   8   9
ATOM      9  C   UNL     1      25.813  22.372  22.196  1.00  0.00     0.000 C 
BRANCH   9  10
ATOM     10  C   UNL     1      27.043  21.895  21.398  1.00  0.00     0.006 C 
BRANCH  10  11
ATOM     11  C   UNL     1      27.579  22.925  20.389  1.00  0.00     0.053 C 
BRANCH  11  12
ATOM     12  C   UNL     1      26.513  23.875  19.936  1.00  0.00     0.041 C 
ATOM     13  O   UNL     1      26.821  25.031  19.542  1.00  0.00    -0.550 OA
ATOM     14  O   UNL     1      25.177  23.491  19.974  1.00  0.00    -0.550 OA
ENDBRANCH  11  12
ENDBRANCH  10  11
ENDBRANCH   9  10
ENDBRANCH   8   9
ENDBRANCH   7   8
ENDBRANCH   6   7
ENDBRANCH   5   6
ENDBRANCH   4   5
ENDBRANCH   3   4
ENDBRANCH   2   3
ENDBRANCH   1   2
BRANCH   1  15
ATOM     15  C   UNL     1      26.404  28.400  23.020  1.00  0.00     0.000 C 
BRANCH  15  16
ATOM     16  C   UNL     1      27.763  28.396  23.750  1.00  0.00     0.000 C 
BRANCH  16  17
ATOM     17  C   UNL     1      27.915  29.417  24.894  1.00  0.00     0.000 C 
BRANCH  17  18
ATOM     18  C   UNL     1      26.760  30.428  25.040  1.00  0.00    -0.000 C 
BRANCH  18  19
ATOM     19  C   UNL     1      26.842  31.250  26.339  1.00  0.00    -0.000 C 
BRANCH  19  20
ATOM     20  C   UNL     1      28.005  32.255  26.330  1.00  0.00    -0.000 C 
BRANCH  20  21
ATOM     21  C   UNL     1      27.576  33.658  25.876  1.00  0.00    -0.000 C 
BRANCH  21  22
ATOM     22  C   UNL     1      27.563  33.764  24.344  1.00  0.00    -0.000 C 
BRANCH  22  23
ATOM     23  C   UNL     1      28.125  35.110  23.845  1.00  0.00    -0.000 C 
BRANCH  23  24
ATOM     24  C   UNL     1      28.044  35.296  22.315  1.00  0.00    -0.000 C 
BRANCH  24  25
ATOM     25  C   UNL     1      27.251  36.545  21.872  1.00  0.00    -0.003 C 
ATOM     26  C   UNL     1      27.963  37.851  22.234  1.00  0.00     0.004 C 
ENDBRANCH  24  25
ENDBRANCH  23  24
ENDBRANCH  22  23
ENDBRANCH  21  22
ENDBRANCH  20  21
ENDBRANCH  19  20
ENDBRANCH  18  19
ENDBRANCH  17  18
ENDBRANCH  16  17
ENDBRANCH  15  16
ENDBRANCH   1  15
TORSDOF 22
ENDMDL
MODEL 4
REMARK VINA RESULT:    -0.512      2.262      3.577
REMARK INTER + INTRA:          -2.917
REMARK INTER:                  -4.094
REMARK INTRA:                   1.177
REMARK UNBOUND:                -1.747
REMARK SMILES CCCCCCCCCCCCCCCCCCCCCCCC(=O)[O-]
REMARK SMILES IDX 13 1 14 2 15 3 16 4 17 5 18 6 19 7 20 8 21 9 22 10 23 11
REMARK SMILES IDX 24 12 25 13 26 14 12 15 11 16 10 17 9 18 8 19 7 20 6 21 5 22
REMARK SMILES IDX 4 23 3 24 2 25 1 26
REMARK H PARENT
REMARK Flexibility Score: inf
ROOT
ATOM      1  C   UNL     1      23.313  25.236  21.021  1.00  0.00     0.000 C 
ENDROOT
BRANCH   1   2
ATOM      2  C   UNL     1      24.272  26.134  21.826  1.00  0.00     0.000 C 
BRANCH   2   3
ATOM      3  C   UNL     1      23.555  27.329  22.486  1.00  0.00     0.000 C 
BRANCH   3   4
ATOM      4  C   UNL     1      24.398  28.615  22.550  1.00  0.00     0.000 C 
BRANCH   4   5
ATOM      5  C   UNL     1      25.723  28.435  23.313  1.00  0.00     0.000 C 
BRANCH   5   6
ATOM      6  C   UNL     1      26.715  27.526  22.568  1.00  0.00     0.000 C 
BRANCH   6   7
ATOM      7  C   UNL     1      28.118  27.544  23.205  1.00  0.00     0.000 C 
BRANCH   7   8
ATOM      8  C   UNL     1      28.073  27.696  24.734  1.00  0.00     0.000 C 
BRANCH   8   9
ATOM      9  C   UNL     1      27.279  28.936  25.184  1.00  0.00     0.000 C 
BRANCH   9  10
ATOM     10  C   UNL     1      28.121  30.227  25.143  1.00  0.00     0.006 C 
BRANCH  10  11
ATOM     11  C   UNL     1      27.994  31.103  26.401  1.00  0.00     0.053 C 
BRANCH  11  12
ATOM     12  C   UNL     1      27.339  32.418  26.107  1.00  0.00     0.041 C 
ATOM     13  O   UNL     1      27.408  32.915  24.951  1.00  0.00    -0.550 OA
ATOM     14  O   UNL     1      26.674  33.106  27.116  1.00  0.00    -0.550 OA
ENDBRANCH  11  12
ENDBRANCH  10  11
ENDBRANCH   9  10
ENDBRANCH   8   9
ENDBRANCH   7   8
ENDBRANCH   6   7
ENDBRANCH   5   6
ENDBRANCH   4   5
ENDBRANCH   3   4
ENDBRANCH   2   3
ENDBRANCH   1   2
BRANCH   1  15
ATOM     15  C   UNL     1      24.040  24.361  19.978  1.00  0.00     0.000 C 
BRANCH  15  16
ATOM     16  C   UNL     1      25.569  24.281  20.167  1.00  0.00     0.000 C 
BRANCH  16  17
ATOM     17  C   UNL     1      26.357  23.636  19.010  1.00  0.00     0.000 C 
BRANCH  17  18
ATOM     18  C   UNL     1      27.846  23.357  19.295  1.00  0.00    -0.000 C 
BRANCH  18  19
ATOM     19  C   UNL     1      28.120  23.015  20.770  1.00  0.00    -0.000 C 
BRANCH  19  20
ATOM     20  C   UNL     1      26.863  22.528  21.508  1.00  0.00    -0.000 C 
BRANCH  20  21
ATOM     21  C   UNL     1      27.132  22.186  22.981  1.00  0.00    -0.000 C 
BRANCH  21  22
ATOM     22  C   UNL     1      27.810  23.358  23.705  1.00  0.00    -0.000 C 
BRANCH  22  23
ATOM     23  C   UNL     1      27.604  23.302  25.232  1.00  0.00    -0.000 C 
BRANCH  23  24
ATOM     24  C   UNL     1      27.217  24.656  25.864  1.00  0.00    -0.000 C 
BRANCH  24  25
ATOM     25  C   UNL     1      27.524  24.758  27.374  1.00  0.00    -0.003 C 
ATOM     26  C   UNL     1      26.395  24.198  28.242  1.00  0.00     0.004 C 
ENDBRANCH  24  25
ENDBRANCH  23  24
ENDBRANCH  22  23
ENDBRANCH  21  22
ENDBRANCH  20  21
ENDBRANCH  19  20
ENDBRANCH  18  19
ENDBRANCH  17  18
ENDBRANCH  16  17
ENDBRANCH  15  16
ENDBRANCH   1  15
TORSDOF 22
ENDMDL
MODEL 5
REMARK VINA RESULT:    -0.456      3.878     10.753
REMARK INTER + INTRA:          -2.790
REMARK INTER:                  -1.464
REMARK INTRA:                  -1.326
REMARK UNBOUND:                -1.747
REMARK SMILES CCCCCCCCCCCCCCCCCCCCCCCC(=O)[O-]
REMARK SMILES IDX 13 1 14 2 15 3 16 4 17 5 18 6 19 7 20 8 21 9 22 10 23 11
REMARK SMILES IDX 24 12 25 13 26 14 12 15 11 16 10 17 9 18 8 19 7 20 6 21 5 22
REMARK SMILES IDX 4 23 3 24 2 25 1 26
REMARK H PARENT
REMARK Flexibility Score: inf
ROOT
ATOM      1  C   UNL     1      26.516  27.637  23.090  1.00  0.00     0.000 C 
ENDROOT
BRANCH   1   2
ATOM      2  C   UNL     1      27.246  26.668  22.140  1.00  0.00     0.000 C 
BRANCH   2   3
ATOM      3  C   UNL     1      27.369  25.245  22.721  1.00  0.00     0.000 C 
BRANCH   3   4
ATOM      4  C   UNL     1      28.025  25.186  24.113  1.00  0.00     0.000 C 
BRANCH   4   5
ATOM      5  C   UNL     1      27.393  24.129  25.037  1.00  0.00     0.000 C 
BRANCH   5   6
ATOM      6  C   UNL     1      27.806  22.695  24.664  1.00  0.00     0.000 C 
BRANCH   6   7
ATOM      7  C   UNL     1      26.642  21.890  24.054  1.00  0.00     0.000 C 
BRANCH   7   8
ATOM      8  C   UNL     1      25.281  22.582  24.240  1.00  0.00     0.000 C 
BRANCH   8   9
ATOM      9  C   UNL     1      24.213  22.062  23.260  1.00  0.00     0.000 C 
BRANCH   9  10
ATOM     10  C   UNL     1      24.692  22.084  21.795  1.00  0.00     0.006 C 
BRANCH  10  11
ATOM     11  C   UNL     1      25.280  23.432  21.344  1.00  0.00     0.053 C 
BRANCH  11  12
ATOM     12  C   UNL     1      24.267  24.277  20.632  1.00  0.00     0.041 C 
ATOM     13  O   UNL     1      24.180  24.238  19.376  1.00  0.00    -0.550 OA
ATOM     14  O   UNL     1      23.438  25.126  21.357  1.00  0.00    -0.550 OA
ENDBRANCH  11  12
ENDBRANCH  10  11
ENDBRANCH   9  10
ENDBRANCH   8   9
ENDBRANCH   7   8
ENDBRANCH   6   7
ENDBRANCH   5   6
ENDBRANCH   4   5
ENDBRANCH   3   4
ENDBRANCH   2   3
ENDBRANCH   1   2
BRANCH   1  15
ATOM     15  C   UNL     1      27.408  28.804  23.562  1.00  0.00     0.000 C 
BRANCH  15  16
ATOM     16  C   UNL     1      27.702  28.811  25.076  1.00  0.00     0.000 C 
BRANCH  16  17
ATOM     17  C   UNL     1      27.695  30.194  25.756  1.00  0.00     0.000 C 
BRANCH  17  18
ATOM     18  C   UNL     1      27.964  31.393  24.824  1.00  0.00    -0.000 C 
BRANCH  18  19
ATOM     19  C   UNL     1      26.837  32.442  24.856  1.00  0.00    -0.000 C 
BRANCH  19  20
ATOM     20  C   UNL     1      27.281  33.768  25.493  1.00  0.00    -0.000 C 
BRANCH  20  21
ATOM     21  C   UNL     1      28.104  34.643  24.536  1.00  0.00    -0.000 C 
BRANCH  21  22
ATOM     22  C   UNL     1      27.542  36.070  24.469  1.00  0.00    -0.000 C 
BRANCH  22  23
ATOM     23  C   UNL     1      27.961  36.805  23.181  1.00  0.00    -0.000 C 
BRANCH  23  24
ATOM     24  C   UNL     1      27.622  38.311  23.178  1.00  0.00    -0.000 C 
BRANCH  24  25
ATOM     25  C   UNL     1      27.180  38.860  24.552  1.00  0.00    -0.003 C 
ATOM     26  C   UNL     1      27.425  40.365  24.689  1.00  0.00     0.004 C 
ENDBRANCH  24  25
ENDBRANCH  23  24
ENDBRANCH  22  23
ENDBRANCH  21  22
ENDBRANCH  20  21
ENDBRANCH  19  20
ENDBRANCH  18  19
ENDBRANCH  17  18
ENDBRANCH  16  17
ENDBRANCH  15  16
ENDBRANCH   1  15
TORSDOF 22
ENDMDL
