MODEL 1
REMARK VINA RESULT:    11.489      0.000      0.000
REMARK INTER + INTRA:          15.624
REMARK INTER:                  15.184
REMARK INTRA:                   0.440
REMARK UNBOUND:                 0.440
REMARK SMILES CC[C@H](C=C[C@@H](C)[C@H]1CC[C@@H]2C3=CC[C@H]4C[C@@H](O)CC[C@@]4(C)[C@H]3CC[C@@]21C)C(C)C
REMARK SMILES IDX 6 1 7 2 5 3 4 4 3 5 2 6 1 7 28 8 29 9 30 10 8 11 9 12 26 13
REMARK SMILES IDX 10 14 11 15 25 16 27 17 12 18 24 19 23 20 13 21 21 22 14 23
REMARK SMILES IDX 15 24 20 25 22 26 16 27 19 28 17 29 18 30
REMARK H PARENT 18 31
REMARK Flexibility Score: inf
ROOT
ATOM      1  C   UNL     1      12.436  17.709  24.753  1.00  0.00     0.012 C 
ATOM      2  C   UNL     1      11.523  16.893  23.812  1.00  0.00     0.012 C 
ENDROOT
BRANCH   1   3
ATOM      3  C   UNL     1      13.759  18.112  24.128  1.00  0.00    -0.028 C 
ATOM      4  C   UNL     1      14.192  17.692  22.925  1.00  0.00    -0.027 C 
BRANCH   4   5
ATOM      5  C   UNL     1      15.540  18.125  22.377  1.00  0.00     0.014 C 
BRANCH   5   6
ATOM      6  C   UNL     1      16.652  17.809  23.409  1.00  0.00     0.004 C 
ATOM      7  C   UNL     1      18.083  17.912  22.859  1.00  0.00     0.004 C 
ENDBRANCH   5   6
BRANCH   5   8
ATOM      8  C   UNL     1      15.779  17.520  20.959  1.00  0.00    -0.011 C 
ATOM      9  C   UNL     1      14.800  18.123  19.933  1.00  0.00     0.008 C 
ATOM     10  C   UNL     1      17.219  17.751  20.462  1.00  0.00     0.008 C 
ENDBRANCH   5   8
ENDBRANCH   4   5
ENDBRANCH   1   3
BRANCH   1  11
ATOM     11  C   UNL     1      12.596  17.222  26.236  1.00  0.00     0.002 C 
ATOM     12  C   UNL     1      11.268  17.004  26.941  1.00  0.00     0.005 C 
ATOM     13  C   UNL     1      13.471  15.984  26.644  1.00  0.00    -0.023 C 
ATOM     14  C   UNL     1      11.679  16.480  28.302  1.00  0.00     0.009 C 
ATOM     15  C   UNL     1      12.881  15.552  28.043  1.00  0.00     0.021 C 
ATOM     16  C   UNL     1      14.967  16.393  26.732  1.00  0.00     0.008 C 
ATOM     17  C   UNL     1      13.319  14.796  25.655  1.00  0.00     0.012 C 
ATOM     18  C   UNL     1      13.862  15.508  29.227  1.00  0.00    -0.067 C 
ATOM     19  C   UNL     1      15.781  15.409  27.557  1.00  0.00     0.009 C 
ATOM     20  C   UNL     1      15.376  15.490  29.037  1.00  0.00     0.021 C 
ATOM     21  C   UNL     1      13.388  15.473  30.493  1.00  0.00    -0.027 C 
ATOM     22  C   UNL     1      16.164  14.492  30.017  1.00  0.00    -0.023 C 
ATOM     23  C   UNL     1      14.309  15.172  31.647  1.00  0.00     0.031 C 
ATOM     24  C   UNL     1      15.265  14.034  31.242  1.00  0.00     0.002 C 
ATOM     25  C   UNL     1      16.791  13.240  29.309  1.00  0.00     0.010 C 
ATOM     26  C   UNL     1      17.383  15.282  30.585  1.00  0.00     0.012 C 
ATOM     27  C   UNL     1      14.427  12.731  31.017  1.00  0.00     0.036 C 
ATOM     28  C   UNL     1      15.789  12.132  29.014  1.00  0.00     0.032 C 
ATOM     29  C   UNL     1      15.213  11.617  30.335  1.00  0.00     0.114 C 
BRANCH  29  30
ATOM     30  O   UNL     1      14.395  10.490  30.133  1.00  0.00    -0.393 OA
ATOM     31  H   UNL     1      13.462  10.759  30.325  1.00  0.00     0.210 HD
ENDBRANCH  29  30
ENDBRANCH   1  11
TORSDOF 6
ENDMDL
MODEL 2
REMARK VINA RESULT:    14.252      1.615      2.938
REMARK INTER + INTRA:          19.274
REMARK INTER:                  18.882
REMARK INTRA:                   0.392
REMARK UNBOUND:                 0.440
REMARK SMILES CC[C@H](C=C[C@@H](C)[C@H]1CC[C@@H]2C3=CC[C@H]4C[C@@H](O)CC[C@@]4(C)[C@H]3CC[C@@]21C)C(C)C
REMARK SMILES IDX 6 1 7 2 5 3 4 4 3 5 2 6 1 7 28 8 29 9 30 10 8 11 9 12 26 13
REMARK SMILES IDX 10 14 11 15 25 16 27 17 12 18 24 19 23 20 13 21 21 22 14 23
REMARK SMILES IDX 15 24 20 25 22 26 16 27 19 28 17 29 18 30
REMARK H PARENT 18 31
REMARK Flexibility Score: inf
ROOT
ATOM      1  C   UNL     1      14.780  17.141  25.511  1.00  0.00     0.012 C 
ATOM      2  C   UNL     1      15.946  18.125  25.269  1.00  0.00     0.012 C 
ENDROOT
BRANCH   1   3
ATOM      3  C   UNL     1      13.509  17.499  24.761  1.00  0.00    -0.028 C 
ATOM      4  C   UNL     1      12.971  16.755  23.777  1.00  0.00    -0.027 C 
BRANCH   4   5
ATOM      5  C   UNL     1      11.706  17.192  23.060  1.00  0.00     0.014 C 
BRANCH   5   6
ATOM      6  C   UNL     1      10.707  17.795  24.079  1.00  0.00     0.004 C 
ATOM      7  C   UNL     1      10.871  17.279  25.517  1.00  0.00     0.004 C 
ENDBRANCH   5   6
BRANCH   5   8
ATOM      8  C   UNL     1      12.048  18.125  21.857  1.00  0.00    -0.011 C 
ATOM      9  C   UNL     1      13.557  18.092  21.549  1.00  0.00     0.008 C 
ATOM     10  C   UNL     1      11.275  17.738  20.581  1.00  0.00     0.008 C 
ENDBRANCH   5   8
ENDBRANCH   4   5
ENDBRANCH   1   3
BRANCH   1  11
ATOM     11  C   UNL     1      14.497  16.674  26.982  1.00  0.00     0.002 C 
ATOM     12  C   UNL     1      13.057  16.899  27.414  1.00  0.00     0.005 C 
ATOM     13  C   UNL     1      14.853  15.241  27.512  1.00  0.00    -0.023 C 
ATOM     14  C   UNL     1      13.020  16.316  28.812  1.00  0.00     0.009 C 
ATOM     15  C   UNL     1      13.903  15.055  28.760  1.00  0.00     0.021 C 
ATOM     16  C   UNL     1      16.356  15.171  27.896  1.00  0.00     0.008 C 
ATOM     17  C   UNL     1      14.533  14.127  26.477  1.00  0.00     0.012 C 
ATOM     18  C   UNL     1      14.578  14.747  30.107  1.00  0.00    -0.067 C 
ATOM     19  C   UNL     1      16.654  14.010  28.831  1.00  0.00     0.009 C 
ATOM     20  C   UNL     1      16.020  14.257  30.208  1.00  0.00     0.021 C 
ATOM     21  C   UNL     1      13.885  14.899  31.258  1.00  0.00    -0.027 C 
ATOM     22  C   UNL     1      16.260  13.096  31.290  1.00  0.00    -0.023 C 
ATOM     23  C   UNL     1      14.430  14.366  32.557  1.00  0.00     0.031 C 
ATOM     24  C   UNL     1      15.048  12.976  32.307  1.00  0.00     0.002 C 
ATOM     25  C   UNL     1      16.592  11.691  30.677  1.00  0.00     0.010 C 
ATOM     26  C   UNL     1      17.532  13.488  32.104  1.00  0.00     0.012 C 
ATOM     27  C   UNL     1      13.907  11.989  31.888  1.00  0.00     0.036 C 
ATOM     28  C   UNL     1      15.373  10.937  30.164  1.00  0.00     0.032 C 
ATOM     29  C   UNL     1      14.426  10.666  31.335  1.00  0.00     0.114 C 
BRANCH  29  30
ATOM     30  O   UNL     1      13.354   9.840  30.947  1.00  0.00    -0.393 OA
ATOM     31  H   UNL     1      13.691   8.910  30.913  1.00  0.00     0.210 HD
ENDBRANCH  29  30
ENDBRANCH   1  11
TORSDOF 6
ENDMDL
MODEL 3
REMARK VINA RESULT:    14.407      1.127      1.950
REMARK INTER + INTRA:          19.480
REMARK INTER:                  17.675
REMARK INTRA:                   1.805
REMARK UNBOUND:                 0.440
REMARK SMILES CC[C@H](C=C[C@@H](C)[C@H]1CC[C@@H]2C3=CC[C@H]4C[C@@H](O)CC[C@@]4(C)[C@H]3CC[C@@]21C)C(C)C
REMARK SMILES IDX 6 1 7 2 5 3 4 4 3 5 2 6 1 7 28 8 29 9 30 10 8 11 9 12 26 13
REMARK SMILES IDX 10 14 11 15 25 16 27 17 12 18 24 19 23 20 13 21 21 22 14 23
REMARK SMILES IDX 15 24 20 25 22 26 16 27 19 28 17 29 18 30
REMARK H PARENT 18 31
REMARK Flexibility Score: inf
ROOT
ATOM      1  C   UNL     1      11.398  17.942  25.361  1.00  0.00     0.012 C 
ATOM      2  C   UNL     1      10.075  17.300  24.888  1.00  0.00     0.012 C 
ENDROOT
BRANCH   1   3
ATOM      3  C   UNL     1      12.422  18.125  24.255  1.00  0.00    -0.028 C 
ATOM      4  C   UNL     1      13.101  17.119  23.674  1.00  0.00    -0.027 C 
BRANCH   4   5
ATOM      5  C   UNL     1      14.127  17.385  22.586  1.00  0.00     0.014 C 
BRANCH   5   6
ATOM      6  C   UNL     1      13.450  18.107  21.393  1.00  0.00     0.004 C 
ATOM      7  C   UNL     1      12.085  17.530  20.987  1.00  0.00     0.004 C 
ENDBRANCH   5   6
BRANCH   5   8
ATOM      8  C   UNL     1      15.371  18.123  23.170  1.00  0.00    -0.011 C 
ATOM      9  C   UNL     1      15.599  17.733  24.642  1.00  0.00     0.008 C 
ATOM     10  C   UNL     1      16.655  17.819  22.373  1.00  0.00     0.008 C 
ENDBRANCH   5   8
ENDBRANCH   4   5
ENDBRANCH   1   3
BRANCH   1  11
ATOM     11  C   UNL     1      12.040  17.420  26.693  1.00  0.00     0.002 C 
ATOM     12  C   UNL     1      11.034  17.265  27.822  1.00  0.00     0.005 C 
ATOM     13  C   UNL     1      12.927  16.127  26.771  1.00  0.00    -0.023 C 
ATOM     14  C   UNL     1      11.865  16.694  28.952  1.00  0.00     0.009 C 
ATOM     15  C   UNL     1      12.842  15.704  28.290  1.00  0.00     0.021 C 
ATOM     16  C   UNL     1      14.380  16.449  26.326  1.00  0.00     0.008 C 
ATOM     17  C   UNL     1      12.367  14.968  25.903  1.00  0.00     0.012 C 
ATOM     18  C   UNL     1      14.173  15.583  29.053  1.00  0.00    -0.067 C 
ATOM     19  C   UNL     1      15.372  15.405  26.814  1.00  0.00     0.009 C 
ATOM     20  C   UNL     1      15.519  15.482  28.342  1.00  0.00     0.021 C 
ATOM     21  C   UNL     1      14.172  15.552  30.405  1.00  0.00    -0.027 C 
ATOM     22  C   UNL     1      16.540  14.424  28.985  1.00  0.00    -0.023 C 
ATOM     23  C   UNL     1      15.420  15.179  31.162  1.00  0.00     0.031 C 
ATOM     24  C   UNL     1      16.103  13.996  30.450  1.00  0.00     0.002 C 
ATOM     25  C   UNL     1      16.802  13.151  28.106  1.00  0.00     0.010 C 
ATOM     26  C   UNL     1      17.926  15.132  29.085  1.00  0.00     0.012 C 
ATOM     27  C   UNL     1      15.164  12.747  30.538  1.00  0.00     0.036 C 
ATOM     28  C   UNL     1      15.696  12.107  28.186  1.00  0.00     0.032 C 
ATOM     29  C   UNL     1      15.591  11.602  29.626  1.00  0.00     0.114 C 
BRANCH  29  30
ATOM     30  O   UNL     1      14.689  10.528  29.729  1.00  0.00    -0.393 OA
ATOM     31  H   UNL     1      15.076   9.763  29.233  1.00  0.00     0.210 HD
ENDBRANCH  29  30
ENDBRANCH   1  11
TORSDOF 6
ENDMDL
