MODEL 1
REMARK VINA RESULT:    -4.511      0.000      0.000
REMARK INTER + INTRA:         -11.432
REMARK INTER:                  -8.731
REMARK INTRA:                  -2.700
REMARK UNBOUND:                -2.700
REMARK SMILES CCCCCCCCCCCCCCCCCC(=O)[O-]
REMARK SMILES IDX 10 1 11 2 12 3 13 4 14 5 15 6 16 7 17 8 18 9 19 10 20 11
REMARK SMILES IDX 9 12 8 13 7 14 6 15 5 16 4 17 3 18 2 19 1 20
REMARK H PARENT
REMARK Flexibility Score: inf
ROOT
ATOM      1  C   UNL     1     -13.708  -3.544  32.239  1.00  0.00     0.000 C 
ENDROOT
BRANCH   1   2
ATOM      2  C   UNL     1     -14.113  -2.696  33.459  1.00  0.00     0.000 C 
BRANCH   2   3
ATOM      3  C   UNL     1     -13.266  -2.999  34.703  1.00  0.00     0.000 C 
BRANCH   3   4
ATOM      4  C   UNL     1     -14.144  -3.077  35.959  1.00  0.00     0.000 C 
BRANCH   4   5
ATOM      5  C   UNL     1     -15.541  -2.504  35.690  1.00  0.00     0.000 C 
BRANCH   5   6
ATOM      6  C   UNL     1     -16.400  -2.529  36.964  1.00  0.00     0.000 C 
BRANCH   6   7
ATOM      7  C   UNL     1     -17.411  -1.372  37.018  1.00  0.00     0.006 C 
BRANCH   7   8
ATOM      8  C   UNL     1     -17.335  -0.463  35.785  1.00  0.00     0.053 C 
BRANCH   8   9
ATOM      9  C   UNL     1     -18.064   0.819  36.036  1.00  0.00     0.041 C 
ATOM     10  O   UNL     1     -17.443   1.914  36.025  1.00  0.00    -0.550 OA
ATOM     11  O   UNL     1     -19.421   0.801  36.330  1.00  0.00    -0.550 OA
ENDBRANCH   8   9
ENDBRANCH   7   8
ENDBRANCH   6   7
ENDBRANCH   5   6
ENDBRANCH   4   5
ENDBRANCH   3   4
ENDBRANCH   2   3
ENDBRANCH   1   2
BRANCH   1  12
ATOM     12  C   UNL     1     -12.661  -4.637  32.525  1.00  0.00     0.000 C 
BRANCH  12  13
ATOM     13  C   UNL     1     -13.083  -6.066  32.129  1.00  0.00    -0.000 C 
BRANCH  13  14
ATOM     14  C   UNL     1     -14.612  -6.277  32.097  1.00  0.00    -0.000 C 
BRANCH  14  15
ATOM     15  C   UNL     1     -15.200  -6.537  33.495  1.00  0.00    -0.000 C 
BRANCH  15  16
ATOM     16  C   UNL     1     -16.403  -5.634  33.810  1.00  0.00    -0.000 C 
BRANCH  16  17
ATOM     17  C   UNL     1     -17.032  -5.023  32.544  1.00  0.00    -0.000 C 
BRANCH  17  18
ATOM     18  C   UNL     1     -17.559  -3.593  32.789  1.00  0.00    -0.000 C 
BRANCH  18  19
ATOM     19  C   UNL     1     -17.408  -2.667  31.571  1.00  0.00    -0.003 C 
ATOM     20  C   UNL     1     -17.117  -1.217  31.954  1.00  0.00     0.004 C 
ENDBRANCH  18  19
ENDBRANCH  17  18
ENDBRANCH  16  17
ENDBRANCH  15  16
ENDBRANCH  14  15
ENDBRANCH  13  14
ENDBRANCH  12  13
ENDBRANCH   1  12
TORSDOF 16
ENDMDL
MODEL 2
REMARK VINA RESULT:    -4.471      1.269      1.761
REMARK INTER + INTRA:         -11.353
REMARK INTER:                  -9.091
REMARK INTRA:                  -2.262
REMARK UNBOUND:                -2.700
REMARK SMILES CCCCCCCCCCCCCCCCCC(=O)[O-]
REMARK SMILES IDX 10 1 11 2 12 3 13 4 14 5 15 6 16 7 17 8 18 9 19 10 20 11
REMARK SMILES IDX 9 12 8 13 7 14 6 15 5 16 4 17 3 18 2 19 1 20
REMARK H PARENT
REMARK Flexibility Score: inf
ROOT
ATOM      1  C   UNL     1     -12.665  -5.020  33.932  1.00  0.00     0.000 C 
ENDROOT
BRANCH   1   2
ATOM      2  C   UNL     1     -13.416  -3.953  34.750  1.00  0.00     0.000 C 
BRANCH   2   3
ATOM      3  C   UNL     1     -14.673  -4.504  35.439  1.00  0.00     0.000 C 
BRANCH   3   4
ATOM      4  C   UNL     1     -15.422  -3.391  36.183  1.00  0.00     0.000 C 
BRANCH   4   5
ATOM      5  C   UNL     1     -15.777  -2.237  35.236  1.00  0.00     0.000 C 
BRANCH   5   6
ATOM      6  C   UNL     1     -17.261  -1.860  35.360  1.00  0.00     0.000 C 
BRANCH   6   7
ATOM      7  C   UNL     1     -17.471  -0.356  35.600  1.00  0.00     0.006 C 
BRANCH   7   8
ATOM      8  C   UNL     1     -17.933  -0.045  37.028  1.00  0.00     0.053 C 
BRANCH   8   9
ATOM      9  C   UNL     1     -18.259   1.409  37.166  1.00  0.00     0.041 C 
ATOM     10  O   UNL     1     -17.868   2.231  36.296  1.00  0.00    -0.550 OA
ATOM     11  O   UNL     1     -18.951   1.864  38.281  1.00  0.00    -0.550 OA
ENDBRANCH   8   9
ENDBRANCH   7   8
ENDBRANCH   6   7
ENDBRANCH   5   6
ENDBRANCH   4   5
ENDBRANCH   3   4
ENDBRANCH   2   3
ENDBRANCH   1   2
BRANCH   1  12
ATOM     12  C   UNL     1     -13.115  -5.148  32.464  1.00  0.00     0.000 C 
BRANCH  12  13
ATOM     13  C   UNL     1     -14.116  -6.287  32.184  1.00  0.00    -0.000 C 
BRANCH  13  14
ATOM     14  C   UNL     1     -15.422  -5.815  31.510  1.00  0.00    -0.000 C 
BRANCH  14  15
ATOM     15  C   UNL     1     -16.610  -5.784  32.486  1.00  0.00    -0.000 C 
BRANCH  15  16
ATOM     16  C   UNL     1     -17.274  -4.400  32.567  1.00  0.00    -0.000 C 
BRANCH  16  17
ATOM     17  C   UNL     1     -16.525  -3.334  31.746  1.00  0.00    -0.000 C 
BRANCH  17  18
ATOM     18  C   UNL     1     -17.357  -2.047  31.568  1.00  0.00    -0.000 C 
BRANCH  18  19
ATOM     19  C   UNL     1     -18.810  -2.183  32.051  1.00  0.00    -0.003 C 
ATOM     20  C   UNL     1     -19.834  -1.928  30.947  1.00  0.00     0.004 C 
ENDBRANCH  18  19
ENDBRANCH  17  18
ENDBRANCH  16  17
ENDBRANCH  15  16
ENDBRANCH  14  15
ENDBRANCH  13  14
ENDBRANCH  12  13
ENDBRANCH   1  12
TORSDOF 16
ENDMDL
MODEL 3
REMARK VINA RESULT:    -4.424      1.247      3.266
REMARK INTER + INTRA:         -11.262
REMARK INTER:                  -8.732
REMARK INTRA:                  -2.530
REMARK UNBOUND:                -2.700
REMARK SMILES CCCCCCCCCCCCCCCCCC(=O)[O-]
REMARK SMILES IDX 10 1 11 2 12 3 13 4 14 5 15 6 16 7 17 8 18 9 19 10 20 11
REMARK SMILES IDX 9 12 8 13 7 14 6 15 5 16 4 17 3 18 2 19 1 20
REMARK H PARENT
REMARK Flexibility Score: inf
ROOT
ATOM      1  C   UNL     1     -15.521  -3.007  31.473  1.00  0.00     0.000 C 
ENDROOT
BRANCH   1   2
ATOM      2  C   UNL     1     -17.023  -2.664  31.482  1.00  0.00     0.000 C 
BRANCH   2   3
ATOM      3  C   UNL     1     -17.360  -1.485  32.407  1.00  0.00     0.000 C 
BRANCH   3   4
ATOM      4  C   UNL     1     -17.992  -1.978  33.715  1.00  0.00     0.000 C 
BRANCH   4   5
ATOM      5  C   UNL     1     -17.942  -0.890  34.795  1.00  0.00     0.000 C 
BRANCH   5   6
ATOM      6  C   UNL     1     -17.056  -1.324  35.972  1.00  0.00     0.000 C 
BRANCH   6   7
ATOM      7  C   UNL     1     -17.628  -0.895  37.333  1.00  0.00     0.006 C 
BRANCH   7   8
ATOM      8  C   UNL     1     -18.666   0.227  37.209  1.00  0.00     0.053 C 
BRANCH   8   9
ATOM      9  C   UNL     1     -17.995   1.564  37.243  1.00  0.00     0.041 C 
ATOM     10  O   UNL     1     -17.880   2.243  36.188  1.00  0.00    -0.550 OA
ATOM     11  O   UNL     1     -17.452   2.041  38.429  1.00  0.00    -0.550 OA
ENDBRANCH   8   9
ENDBRANCH   7   8
ENDBRANCH   6   7
ENDBRANCH   5   6
ENDBRANCH   4   5
ENDBRANCH   3   4
ENDBRANCH   2   3
ENDBRANCH   1   2
BRANCH   1  12
ATOM     12  C   UNL     1     -14.676  -2.250  32.515  1.00  0.00     0.000 C 
BRANCH  12  13
ATOM     13  C   UNL     1     -13.706  -3.128  33.331  1.00  0.00    -0.000 C 
BRANCH  13  14
ATOM     14  C   UNL     1     -14.069  -3.231  34.828  1.00  0.00    -0.000 C 
BRANCH  14  15
ATOM     15  C   UNL     1     -14.636  -4.611  35.203  1.00  0.00    -0.000 C 
BRANCH  15  16
ATOM     16  C   UNL     1     -16.079  -4.812  34.713  1.00  0.00    -0.000 C 
BRANCH  16  17
ATOM     17  C   UNL     1     -16.206  -5.972  33.708  1.00  0.00    -0.000 C 
BRANCH  17  18
ATOM     18  C   UNL     1     -14.840  -6.612  33.382  1.00  0.00    -0.000 C 
BRANCH  18  19
ATOM     19  C   UNL     1     -14.465  -6.534  31.893  1.00  0.00    -0.003 C 
ATOM     20  C   UNL     1     -15.664  -6.712  30.964  1.00  0.00     0.004 C 
ENDBRANCH  18  19
ENDBRANCH  17  18
ENDBRANCH  16  17
ENDBRANCH  15  16
ENDBRANCH  14  15
ENDBRANCH  13  14
ENDBRANCH  12  13
ENDBRANCH   1  12
TORSDOF 16
ENDMDL
MODEL 4
REMARK VINA RESULT:    -4.363      1.375      3.335
REMARK INTER + INTRA:         -11.144
REMARK INTER:                  -8.618
REMARK INTRA:                  -2.525
REMARK UNBOUND:                -2.700
REMARK SMILES CCCCCCCCCCCCCCCCCC(=O)[O-]
REMARK SMILES IDX 10 1 11 2 12 3 13 4 14 5 15 6 16 7 17 8 18 9 19 10 20 11
REMARK SMILES IDX 9 12 8 13 7 14 6 15 5 16 4 17 3 18 2 19 1 20
REMARK H PARENT
REMARK Flexibility Score: inf
ROOT
ATOM      1  C   UNL     1     -17.495  -4.411  32.191  1.00  0.00     0.000 C 
ENDROOT
BRANCH   1   2
ATOM      2  C   UNL     1     -16.583  -3.281  31.679  1.00  0.00     0.000 C 
BRANCH   2   3
ATOM      3  C   UNL     1     -16.661  -2.014  32.541  1.00  0.00     0.000 C 
BRANCH   3   4
ATOM      4  C   UNL     1     -17.694  -2.177  33.664  1.00  0.00     0.000 C 
BRANCH   4   5
ATOM      5  C   UNL     1     -17.508  -1.104  34.744  1.00  0.00     0.000 C 
BRANCH   5   6
ATOM      6  C   UNL     1     -17.042  -1.729  36.067  1.00  0.00     0.000 C 
BRANCH   6   7
ATOM      7  C   UNL     1     -17.454  -0.898  37.292  1.00  0.00     0.006 C 
BRANCH   7   8
ATOM      8  C   UNL     1     -17.594   0.595  36.972  1.00  0.00     0.053 C 
BRANCH   8   9
ATOM      9  C   UNL     1     -18.715   1.195  37.761  1.00  0.00     0.041 C 
ATOM     10  O   UNL     1     -18.545   2.278  38.380  1.00  0.00    -0.550 OA
ATOM     11  O   UNL     1     -19.933   0.533  37.853  1.00  0.00    -0.550 OA
ENDBRANCH   8   9
ENDBRANCH   7   8
ENDBRANCH   6   7
ENDBRANCH   5   6
ENDBRANCH   4   5
ENDBRANCH   3   4
ENDBRANCH   2   3
ENDBRANCH   1   2
BRANCH   1  12
ATOM     12  C   UNL     1     -17.071  -5.831  31.769  1.00  0.00     0.000 C 
BRANCH  12  13
ATOM     13  C   UNL     1     -15.588  -5.980  31.377  1.00  0.00    -0.000 C 
BRANCH  13  14
ATOM     14  C   UNL     1     -14.854  -7.105  32.136  1.00  0.00    -0.000 C 
BRANCH  14  15
ATOM     15  C   UNL     1     -13.342  -6.847  32.255  1.00  0.00    -0.000 C 
BRANCH  15  16
ATOM     16  C   UNL     1     -12.994  -5.350  32.258  1.00  0.00    -0.000 C 
BRANCH  16  17
ATOM     17  C   UNL     1     -12.754  -4.801  33.676  1.00  0.00    -0.000 C 
BRANCH  17  18
ATOM     18  C   UNL     1     -13.924  -3.920  34.164  1.00  0.00    -0.000 C 
BRANCH  18  19
ATOM     19  C   UNL     1     -14.561  -4.415  35.473  1.00  0.00    -0.003 C 
ATOM     20  C   UNL     1     -15.879  -5.154  35.255  1.00  0.00     0.004 C 
ENDBRANCH  18  19
ENDBRANCH  17  18
ENDBRANCH  16  17
ENDBRANCH  15  16
ENDBRANCH  14  15
ENDBRANCH  13  14
ENDBRANCH  12  13
ENDBRANCH   1  12
TORSDOF 16
ENDMDL
MODEL 5
REMARK VINA RESULT:    -4.346      2.142      4.494
REMARK INTER + INTRA:         -11.112
REMARK INTER:                  -8.645
REMARK INTRA:                  -2.467
REMARK UNBOUND:                -2.700
REMARK SMILES CCCCCCCCCCCCCCCCCC(=O)[O-]
REMARK SMILES IDX 10 1 11 2 12 3 13 4 14 5 15 6 16 7 17 8 18 9 19 10 20 11
REMARK SMILES IDX 9 12 8 13 7 14 6 15 5 16 4 17 3 18 2 19 1 20
REMARK H PARENT
REMARK Flexibility Score: inf
ROOT
ATOM      1  C   UNL     1     -15.543  -7.871  31.713  1.00  0.00     0.000 C 
ENDROOT
BRANCH   1   2
ATOM      2  C   UNL     1     -16.157  -6.509  31.337  1.00  0.00     0.000 C 
BRANCH   2   3
ATOM      3  C   UNL     1     -17.109  -5.966  32.412  1.00  0.00     0.000 C 
BRANCH   3   4
ATOM      4  C   UNL     1     -16.715  -4.542  32.824  1.00  0.00     0.000 C 
BRANCH   4   5
ATOM      5  C   UNL     1     -15.968  -3.827  31.692  1.00  0.00     0.000 C 
BRANCH   5   6
ATOM      6  C   UNL     1     -15.575  -2.401  32.107  1.00  0.00     0.000 C 
BRANCH   6   7
ATOM      7  C   UNL     1     -16.754  -1.418  32.039  1.00  0.00     0.006 C 
BRANCH   7   8
ATOM      8  C   UNL     1     -17.758  -1.776  30.937  1.00  0.00     0.053 C 
BRANCH   8   9
ATOM      9  C   UNL     1     -19.134  -1.917  31.510  1.00  0.00     0.041 C 
ATOM     10  O   UNL     1     -19.301  -1.939  32.758  1.00  0.00    -0.550 OA
ATOM     11  O   UNL     1     -20.225  -2.075  30.666  1.00  0.00    -0.550 OA
ENDBRANCH   8   9
ENDBRANCH   7   8
ENDBRANCH   6   7
ENDBRANCH   5   6
ENDBRANCH   4   5
ENDBRANCH   3   4
ENDBRANCH   2   3
ENDBRANCH   1   2
BRANCH   1  12
ATOM     12  C   UNL     1     -14.038  -7.837  32.038  1.00  0.00     0.000 C 
BRANCH  12  13
ATOM     13  C   UNL     1     -13.418  -6.428  32.114  1.00  0.00    -0.000 C 
BRANCH  13  14
ATOM     14  C   UNL     1     -12.999  -6.009  33.540  1.00  0.00    -0.000 C 
BRANCH  14  15
ATOM     15  C   UNL     1     -12.845  -4.485  33.684  1.00  0.00    -0.000 C 
BRANCH  15  16
ATOM     16  C   UNL     1     -13.016  -4.007  35.135  1.00  0.00    -0.000 C 
BRANCH  16  17
ATOM     17  C   UNL     1     -14.097  -2.920  35.277  1.00  0.00    -0.000 C 
BRANCH  17  18
ATOM     18  C   UNL     1     -15.392  -3.467  35.914  1.00  0.00    -0.000 C 
BRANCH  18  19
ATOM     19  C   UNL     1     -16.227  -2.391  36.627  1.00  0.00    -0.003 C 
ATOM     20  C   UNL     1     -17.050  -1.537  35.666  1.00  0.00     0.004 C 
ENDBRANCH  18  19
ENDBRANCH  17  18
ENDBRANCH  16  17
ENDBRANCH  15  16
ENDBRANCH  14  15
ENDBRANCH  13  14
ENDBRANCH  12  13
ENDBRANCH   1  12
TORSDOF 16
ENDMDL
MODEL 6
REMARK VINA RESULT:    -4.332      1.422      2.612
REMARK INTER + INTRA:         -11.085
REMARK INTER:                  -8.773
REMARK INTRA:                  -2.312
REMARK UNBOUND:                -2.700
REMARK SMILES CCCCCCCCCCCCCCCCCC(=O)[O-]
REMARK SMILES IDX 10 1 11 2 12 3 13 4 14 5 15 6 16 7 17 8 18 9 19 10 20 11
REMARK SMILES IDX 9 12 8 13 7 14 6 15 5 16 4 17 3 18 2 19 1 20
REMARK H PARENT
REMARK Flexibility Score: inf
ROOT
ATOM      1  C   UNL     1     -16.343  -4.682  34.783  1.00  0.00     0.000 C 
ENDROOT
BRANCH   1   2
ATOM      2  C   UNL     1     -15.372  -4.375  35.939  1.00  0.00     0.000 C 
BRANCH   2   3
ATOM      3  C   UNL     1     -14.840  -2.936  35.904  1.00  0.00     0.000 C 
BRANCH   3   4
ATOM      4  C   UNL     1     -15.985  -1.924  36.039  1.00  0.00     0.000 C 
BRANCH   4   5
ATOM      5  C   UNL     1     -16.830  -2.212  37.286  1.00  0.00     0.000 C 
BRANCH   5   6
ATOM      6  C   UNL     1     -17.473  -0.925  37.825  1.00  0.00     0.000 C 
BRANCH   6   7
ATOM      7  C   UNL     1     -18.214  -0.133  36.736  1.00  0.00     0.006 C 
BRANCH   7   8
ATOM      8  C   UNL     1     -17.798   1.342  36.692  1.00  0.00     0.053 C 
BRANCH   8   9
ATOM      9  C   UNL     1     -18.070   2.000  38.009  1.00  0.00     0.041 C 
ATOM     10  O   UNL     1     -17.136   2.558  38.643  1.00  0.00    -0.550 OA
ATOM     11  O   UNL     1     -19.344   1.955  38.559  1.00  0.00    -0.550 OA
ENDBRANCH   8   9
ENDBRANCH   7   8
ENDBRANCH   6   7
ENDBRANCH   5   6
ENDBRANCH   4   5
ENDBRANCH   3   4
ENDBRANCH   2   3
ENDBRANCH   1   2
BRANCH   1  12
ATOM     12  C   UNL     1     -15.878  -5.792  33.821  1.00  0.00     0.000 C 
BRANCH  12  13
ATOM     13  C   UNL     1     -14.359  -6.054  33.812  1.00  0.00    -0.000 C 
BRANCH  13  14
ATOM     14  C   UNL     1     -13.627  -5.431  32.605  1.00  0.00    -0.000 C 
BRANCH  14  15
ATOM     15  C   UNL     1     -13.169  -3.987  32.874  1.00  0.00    -0.000 C 
BRANCH  15  16
ATOM     16  C   UNL     1     -13.692  -2.994  31.824  1.00  0.00    -0.000 C 
BRANCH  16  17
ATOM     17  C   UNL     1     -15.228  -2.998  31.718  1.00  0.00    -0.000 C 
BRANCH  17  18
ATOM     18  C   UNL     1     -15.865  -1.811  32.471  1.00  0.00    -0.000 C 
BRANCH  18  19
ATOM     19  C   UNL     1     -17.334  -1.561  32.093  1.00  0.00    -0.003 C 
ATOM     20  C   UNL     1     -18.318  -2.065  33.147  1.00  0.00     0.004 C 
ENDBRANCH  18  19
ENDBRANCH  17  18
ENDBRANCH  16  17
ENDBRANCH  15  16
ENDBRANCH  14  15
ENDBRANCH  13  14
ENDBRANCH  12  13
ENDBRANCH   1  12
TORSDOF 16
ENDMDL
MODEL 7
REMARK VINA RESULT:    -4.277      1.421      3.730
REMARK INTER + INTRA:         -10.979
REMARK INTER:                  -8.575
REMARK INTRA:                  -2.404
REMARK UNBOUND:                -2.700
REMARK SMILES CCCCCCCCCCCCCCCCCC(=O)[O-]
REMARK SMILES IDX 10 1 11 2 12 3 13 4 14 5 15 6 16 7 17 8 18 9 19 10 20 11
REMARK SMILES IDX 9 12 8 13 7 14 6 15 5 16 4 17 3 18 2 19 1 20
REMARK H PARENT
REMARK Flexibility Score: inf
ROOT
ATOM      1  C   UNL     1     -17.161  -6.454  31.590  1.00  0.00     0.000 C 
ENDROOT
BRANCH   1   2
ATOM      2  C   UNL     1     -16.849  -5.318  32.581  1.00  0.00     0.000 C 
BRANCH   2   3
ATOM      3  C   UNL     1     -16.469  -4.004  31.883  1.00  0.00     0.000 C 
BRANCH   3   4
ATOM      4  C   UNL     1     -17.688  -3.082  31.749  1.00  0.00     0.000 C 
BRANCH   4   5
ATOM      5  C   UNL     1     -17.262  -1.610  31.690  1.00  0.00     0.000 C 
BRANCH   5   6
ATOM      6  C   UNL     1     -16.796  -1.116  33.068  1.00  0.00     0.000 C 
BRANCH   6   7
ATOM      7  C   UNL     1     -17.774  -1.491  34.193  1.00  0.00     0.006 C 
BRANCH   7   8
ATOM      8  C   UNL     1     -17.113  -1.483  35.576  1.00  0.00     0.053 C 
BRANCH   8   9
ATOM      9  C   UNL     1     -17.622  -0.335  36.391  1.00  0.00     0.041 C 
ATOM     10  O   UNL     1     -17.544   0.841  35.946  1.00  0.00    -0.550 OA
ATOM     11  O   UNL     1     -18.137  -0.558  37.661  1.00  0.00    -0.550 OA
ENDBRANCH   8   9
ENDBRANCH   7   8
ENDBRANCH   6   7
ENDBRANCH   5   6
ENDBRANCH   4   5
ENDBRANCH   3   4
ENDBRANCH   2   3
ENDBRANCH   1   2
BRANCH   1  12
ATOM     12  C   UNL     1     -15.932  -7.239  31.094  1.00  0.00     0.000 C 
BRANCH  12  13
ATOM     13  C   UNL     1     -15.205  -8.064  32.174  1.00  0.00    -0.000 C 
BRANCH  13  14
ATOM     14  C   UNL     1     -13.717  -7.690  32.346  1.00  0.00    -0.000 C 
BRANCH  14  15
ATOM     15  C   UNL     1     -13.384  -6.311  31.752  1.00  0.00    -0.000 C 
BRANCH  15  16
ATOM     16  C   UNL     1     -12.865  -5.320  32.807  1.00  0.00    -0.000 C 
BRANCH  16  17
ATOM     17  C   UNL     1     -13.040  -5.841  34.245  1.00  0.00    -0.000 C 
BRANCH  17  18
ATOM     18  C   UNL     1     -14.034  -4.983  35.057  1.00  0.00    -0.000 C 
BRANCH  18  19
ATOM     19  C   UNL     1     -14.133  -3.529  34.567  1.00  0.00    -0.003 C 
ATOM     20  C   UNL     1     -13.376  -2.545  35.457  1.00  0.00     0.004 C 
ENDBRANCH  18  19
ENDBRANCH  17  18
ENDBRANCH  16  17
ENDBRANCH  15  16
ENDBRANCH  14  15
ENDBRANCH  13  14
ENDBRANCH  12  13
ENDBRANCH   1  12
TORSDOF 16
ENDMDL
MODEL 8
REMARK VINA RESULT:    -4.223      2.114      5.066
REMARK INTER + INTRA:         -10.873
REMARK INTER:                  -8.798
REMARK INTRA:                  -2.074
REMARK UNBOUND:                -2.700
REMARK SMILES CCCCCCCCCCCCCCCCCC(=O)[O-]
REMARK SMILES IDX 10 1 11 2 12 3 13 4 14 5 15 6 16 7 17 8 18 9 19 10 20 11
REMARK SMILES IDX 9 12 8 13 7 14 6 15 5 16 4 17 3 18 2 19 1 20
REMARK H PARENT
REMARK Flexibility Score: inf
ROOT
ATOM      1  C   UNL     1     -13.709  -3.379  32.997  1.00  0.00     0.000 C 
ENDROOT
BRANCH   1   2
ATOM      2  C   UNL     1     -12.716  -4.530  32.749  1.00  0.00     0.000 C 
BRANCH   2   3
ATOM      3  C   UNL     1     -13.399  -5.904  32.688  1.00  0.00     0.000 C 
BRANCH   3   4
ATOM      4  C   UNL     1     -14.759  -5.809  31.986  1.00  0.00     0.000 C 
BRANCH   4   5
ATOM      5  C   UNL     1     -15.880  -6.354  32.880  1.00  0.00     0.000 C 
BRANCH   5   6
ATOM      6  C   UNL     1     -17.122  -5.453  32.816  1.00  0.00     0.000 C 
BRANCH   6   7
ATOM      7  C   UNL     1     -16.926  -4.240  31.892  1.00  0.00     0.006 C 
BRANCH   7   8
ATOM      8  C   UNL     1     -17.932  -3.117  32.172  1.00  0.00     0.053 C 
BRANCH   8   9
ATOM      9  C   UNL     1     -17.500  -1.851  31.500  1.00  0.00     0.041 C 
ATOM     10  O   UNL     1     -16.796  -1.012  32.121  1.00  0.00    -0.550 OA
ATOM     11  O   UNL     1     -17.917  -1.575  30.204  1.00  0.00    -0.550 OA
ENDBRANCH   8   9
ENDBRANCH   7   8
ENDBRANCH   6   7
ENDBRANCH   5   6
ENDBRANCH   4   5
ENDBRANCH   3   4
ENDBRANCH   2   3
ENDBRANCH   1   2
BRANCH   1  12
ATOM     12  C   UNL     1     -13.824  -2.924  34.464  1.00  0.00     0.000 C 
BRANCH  12  13
ATOM     13  C   UNL     1     -14.539  -3.918  35.401  1.00  0.00    -0.000 C 
BRANCH  13  14
ATOM     14  C   UNL     1     -15.792  -3.334  36.088  1.00  0.00    -0.000 C 
BRANCH  14  15
ATOM     15  C   UNL     1     -16.372  -2.128  35.329  1.00  0.00    -0.000 C 
BRANCH  15  16
ATOM     16  C   UNL     1     -17.233  -1.222  36.223  1.00  0.00    -0.000 C 
BRANCH  16  17
ATOM     17  C   UNL     1     -17.910  -0.084  35.437  1.00  0.00    -0.000 C 
BRANCH  17  18
ATOM     18  C   UNL     1     -18.952   0.671  36.289  1.00  0.00    -0.000 C 
BRANCH  18  19
ATOM     19  C   UNL     1     -18.531   0.852  37.757  1.00  0.00    -0.003 C 
ATOM     20  C   UNL     1     -17.899   2.214  38.034  1.00  0.00     0.004 C 
ENDBRANCH  18  19
ENDBRANCH  17  18
ENDBRANCH  16  17
ENDBRANCH  15  16
ENDBRANCH  14  15
ENDBRANCH  13  14
ENDBRANCH  12  13
ENDBRANCH   1  12
TORSDOF 16
ENDMDL
MODEL 9
REMARK VINA RESULT:    -4.206      1.825      3.519
REMARK INTER + INTRA:         -10.841
REMARK INTER:                  -8.322
REMARK INTRA:                  -2.519
REMARK UNBOUND:                -2.700
REMARK SMILES CCCCCCCCCCCCCCCCCC(=O)[O-]
REMARK SMILES IDX 10 1 11 2 12 3 13 4 14 5 15 6 16 7 17 8 18 9 19 10 20 11
REMARK SMILES IDX 9 12 8 13 7 14 6 15 5 16 4 17 3 18 2 19 1 20
REMARK H PARENT
REMARK Flexibility Score: inf
ROOT
ATOM      1  C   UNL     1     -14.774  -7.774  32.153  1.00  0.00     0.000 C 
ENDROOT
BRANCH   1   2
ATOM      2  C   UNL     1     -13.352  -7.194  32.279  1.00  0.00     0.000 C 
BRANCH   2   3
ATOM      3  C   UNL     1     -13.291  -5.692  31.971  1.00  0.00     0.000 C 
BRANCH   3   4
ATOM      4  C   UNL     1     -12.542  -4.936  33.076  1.00  0.00     0.000 C 
BRANCH   4   5
ATOM      5  C   UNL     1     -13.514  -4.133  33.950  1.00  0.00     0.000 C 
BRANCH   5   6
ATOM      6  C   UNL     1     -14.015  -4.976  35.133  1.00  0.00     0.000 C 
BRANCH   6   7
ATOM      7  C   UNL     1     -14.696  -4.127  36.218  1.00  0.00     0.006 C 
BRANCH   7   8
ATOM      8  C   UNL     1     -14.963  -2.688  35.760  1.00  0.00     0.053 C 
BRANCH   8   9
ATOM      9  C   UNL     1     -16.298  -2.223  36.252  1.00  0.00     0.041 C 
ATOM     10  O   UNL     1     -16.572  -2.270  37.480  1.00  0.00    -0.550 OA
ATOM     11  O   UNL     1     -17.257  -1.784  35.349  1.00  0.00    -0.550 OA
ENDBRANCH   8   9
ENDBRANCH   7   8
ENDBRANCH   6   7
ENDBRANCH   5   6
ENDBRANCH   4   5
ENDBRANCH   3   4
ENDBRANCH   2   3
ENDBRANCH   1   2
BRANCH   1  12
ATOM     12  C   UNL     1     -15.619  -7.180  31.011  1.00  0.00     0.000 C 
BRANCH  12  13
ATOM     13  C   UNL     1     -16.944  -6.526  31.450  1.00  0.00    -0.000 C 
BRANCH  13  14
ATOM     14  C   UNL     1     -16.942  -6.040  32.915  1.00  0.00    -0.000 C 
BRANCH  14  15
ATOM     15  C   UNL     1     -17.071  -4.511  33.029  1.00  0.00    -0.000 C 
BRANCH  15  16
ATOM     16  C   UNL     1     -16.484  -3.774  31.815  1.00  0.00    -0.000 C 
BRANCH  16  17
ATOM     17  C   UNL     1     -16.268  -2.273  32.081  1.00  0.00    -0.000 C 
BRANCH  17  18
ATOM     18  C   UNL     1     -17.432  -1.414  31.544  1.00  0.00    -0.000 C 
BRANCH  18  19
ATOM     19  C   UNL     1     -18.806  -1.829  32.094  1.00  0.00    -0.003 C 
ATOM     20  C   UNL     1     -19.840  -2.079  30.998  1.00  0.00     0.004 C 
ENDBRANCH  18  19
ENDBRANCH  17  18
ENDBRANCH  16  17
ENDBRANCH  15  16
ENDBRANCH  14  15
ENDBRANCH  13  14
ENDBRANCH  12  13
ENDBRANCH   1  12
TORSDOF 16
ENDMDL
