MODEL 1
REMARK VINA RESULT:     8.340      0.000      0.000
REMARK INTER + INTRA:          13.877
REMARK INTER:                  14.190
REMARK INTRA:                  -0.314
REMARK UNBOUND:                -0.314
REMARK SMILES CCCCCCCCCCCCCC(=O)[O-]
REMARK SMILES IDX 8 1 9 2 10 3 11 4 12 5 13 6 14 7 15 8 16 9 7 10 6 11 5 12
REMARK SMILES IDX 4 13 3 14 2 15 1 16
REMARK H PARENT
REMARK Flexibility Score: inf
ROOT
ATOM      1  C   UNL     1     -10.885  19.159 -15.648  1.00  0.00     0.000 C 
ENDROOT
BRANCH   1   2
ATOM      2  C   UNL     1     -10.895  19.866 -17.012  1.00  0.00     0.000 C 
BRANCH   2   3
ATOM      3  C   UNL     1     -11.636  19.024 -18.060  1.00  0.00     0.000 C 
BRANCH   3   4
ATOM      4  C   UNL     1     -11.909  19.799 -19.359  1.00  0.00     0.000 C 
BRANCH   4   5
ATOM      5  C   UNL     1     -13.191  19.336 -20.069  1.00  0.00     0.006 C 
BRANCH   5   6
ATOM      6  C   UNL     1     -13.791  20.469 -20.907  1.00  0.00     0.053 C 
BRANCH   6   7
ATOM      7  C   UNL     1     -13.493  20.261 -22.358  1.00  0.00     0.041 C 
ATOM      8  O   UNL     1     -12.677  21.014 -22.952  1.00  0.00    -0.550 OA
ATOM      9  O   UNL     1     -14.079  19.204 -23.044  1.00  0.00    -0.550 OA
ENDBRANCH   6   7
ENDBRANCH   5   6
ENDBRANCH   4   5
ENDBRANCH   3   4
ENDBRANCH   2   3
ENDBRANCH   1   2
BRANCH   1  10
ATOM     10  C   UNL     1     -12.220  19.294 -14.899  1.00  0.00     0.000 C 
BRANCH  10  11
ATOM     11  C   UNL     1     -12.035  19.707 -13.428  1.00  0.00    -0.000 C 
BRANCH  11  12
ATOM     12  C   UNL     1     -12.719  18.738 -12.451  1.00  0.00    -0.000 C 
BRANCH  12  13
ATOM     13  C   UNL     1     -13.182  19.427 -11.159  1.00  0.00    -0.000 C 
BRANCH  13  14
ATOM     14  C   UNL     1     -12.855  18.567  -9.931  1.00  0.00    -0.000 C 
BRANCH  14  15
ATOM     15  C   UNL     1     -13.479  19.158  -8.662  1.00  0.00    -0.003 C 
ATOM     16  C   UNL     1     -12.585  20.240  -8.062  1.00  0.00     0.004 C 
ENDBRANCH  14  15
ENDBRANCH  13  14
ENDBRANCH  12  13
ENDBRANCH  11  12
ENDBRANCH  10  11
ENDBRANCH   1  10
TORSDOF 12
ENDMDL
MODEL 2
REMARK VINA RESULT:     8.527      1.417      1.865
REMARK INTER + INTRA:          14.195
REMARK INTER:                  14.591
REMARK INTRA:                  -0.396
REMARK UNBOUND:                -0.314
REMARK SMILES CCCCCCCCCCCCCC(=O)[O-]
REMARK SMILES IDX 8 1 9 2 10 3 11 4 12 5 13 6 14 7 15 8 16 9 7 10 6 11 5 12
REMARK SMILES IDX 4 13 3 14 2 15 1 16
REMARK H PARENT
REMARK Flexibility Score: inf
ROOT
ATOM      1  C   UNL     1     -13.410  18.176 -15.716  1.00  0.00     0.000 C 
ENDROOT
BRANCH   1   2
ATOM      2  C   UNL     1     -14.634  18.204 -16.645  1.00  0.00     0.000 C 
BRANCH   2   3
ATOM      3  C   UNL     1     -14.218  17.981 -18.106  1.00  0.00     0.000 C 
BRANCH   3   4
ATOM      4  C   UNL     1     -14.667  19.123 -19.032  1.00  0.00     0.000 C 
BRANCH   4   5
ATOM      5  C   UNL     1     -13.598  19.504 -20.068  1.00  0.00     0.006 C 
BRANCH   5   6
ATOM      6  C   UNL     1     -14.128  20.564 -21.037  1.00  0.00     0.053 C 
BRANCH   6   7
ATOM      7  C   UNL     1     -13.626  20.305 -22.422  1.00  0.00     0.041 C 
ATOM      8  O   UNL     1     -14.053  19.316 -23.076  1.00  0.00    -0.550 OA
ATOM      9  O   UNL     1     -12.725  21.182 -23.011  1.00  0.00    -0.550 OA
ENDBRANCH   6   7
ENDBRANCH   5   6
ENDBRANCH   4   5
ENDBRANCH   3   4
ENDBRANCH   2   3
ENDBRANCH   1   2
BRANCH   1  10
ATOM     10  C   UNL     1     -13.594  19.051 -14.466  1.00  0.00     0.000 C 
BRANCH  10  11
ATOM     11  C   UNL     1     -12.278  19.266 -13.696  1.00  0.00    -0.000 C 
BRANCH  11  12
ATOM     12  C   UNL     1     -12.509  19.605 -12.215  1.00  0.00    -0.000 C 
BRANCH  12  13
ATOM     13  C   UNL     1     -13.242  18.489 -11.457  1.00  0.00    -0.000 C 
BRANCH  13  14
ATOM     14  C   UNL     1     -12.759  18.403 -10.004  1.00  0.00    -0.000 C 
BRANCH  14  15
ATOM     15  C   UNL     1     -13.557  19.351  -9.102  1.00  0.00    -0.003 C 
ATOM     16  C   UNL     1     -12.633  20.141  -8.179  1.00  0.00     0.004 C 
ENDBRANCH  14  15
ENDBRANCH  13  14
ENDBRANCH  12  13
ENDBRANCH  11  12
ENDBRANCH  10  11
ENDBRANCH   1  10
TORSDOF 12
ENDMDL
MODEL 3
REMARK VINA RESULT:     8.568      5.397     10.050
REMARK INTER + INTRA:          14.266
REMARK INTER:                  14.623
REMARK INTRA:                  -0.358
REMARK UNBOUND:                -0.314
REMARK SMILES CCCCCCCCCCCCCC(=O)[O-]
REMARK SMILES IDX 8 1 9 2 10 3 11 4 12 5 13 6 14 7 15 8 16 9 7 10 6 11 5 12
REMARK SMILES IDX 4 13 3 14 2 15 1 16
REMARK H PARENT
REMARK Flexibility Score: inf
ROOT
ATOM      1  C   UNL     1     -13.287  18.139 -15.995  1.00  0.00     0.000 C 
ENDROOT
BRANCH   1   2
ATOM      2  C   UNL     1     -13.565  18.906 -14.693  1.00  0.00     0.000 C 
BRANCH   2   3
ATOM      3  C   UNL     1     -12.284  19.050 -13.858  1.00  0.00     0.000 C 
BRANCH   3   4
ATOM      4  C   UNL     1     -12.531  19.739 -12.506  1.00  0.00     0.000 C 
BRANCH   4   5
ATOM      5  C   UNL     1     -13.029  18.766 -11.426  1.00  0.00     0.006 C 
BRANCH   5   6
ATOM      6  C   UNL     1     -13.559  19.527 -10.207  1.00  0.00     0.053 C 
BRANCH   6   7
ATOM      7  C   UNL     1     -12.917  19.021  -8.954  1.00  0.00     0.041 C 
ATOM      8  O   UNL     1     -12.369  17.887  -8.937  1.00  0.00    -0.550 OA
ATOM      9  O   UNL     1     -12.881  19.821  -7.819  1.00  0.00    -0.550 OA
ENDBRANCH   6   7
ENDBRANCH   5   6
ENDBRANCH   4   5
ENDBRANCH   3   4
ENDBRANCH   2   3
ENDBRANCH   1   2
BRANCH   1  10
ATOM     10  C   UNL     1     -14.553  17.924 -16.840  1.00  0.00     0.000 C 
BRANCH  10  11
ATOM     11  C   UNL     1     -14.256  17.875 -18.349  1.00  0.00    -0.000 C 
BRANCH  11  12
ATOM     12  C   UNL     1     -14.626  19.183 -19.067  1.00  0.00    -0.000 C 
BRANCH  12  13
ATOM     13  C   UNL     1     -13.571  19.615 -20.095  1.00  0.00    -0.000 C 
BRANCH  13  14
ATOM     14  C   UNL     1     -14.142  20.662 -21.060  1.00  0.00    -0.000 C 
BRANCH  14  15
ATOM     15  C   UNL     1     -13.939  20.236 -22.518  1.00  0.00    -0.003 C 
ATOM     16  C   UNL     1     -12.552  20.626 -23.018  1.00  0.00     0.004 C 
ENDBRANCH  14  15
ENDBRANCH  13  14
ENDBRANCH  12  13
ENDBRANCH  11  12
ENDBRANCH  10  11
ENDBRANCH   1  10
TORSDOF 12
ENDMDL
MODEL 4
REMARK VINA RESULT:     8.689      3.611      5.196
REMARK INTER + INTRA:          14.470
REMARK INTER:                  15.315
REMARK INTRA:                  -0.845
REMARK UNBOUND:                -0.314
REMARK SMILES CCCCCCCCCCCCCC(=O)[O-]
REMARK SMILES IDX 8 1 9 2 10 3 11 4 12 5 13 6 14 7 15 8 16 9 7 10 6 11 5 12
REMARK SMILES IDX 4 13 3 14 2 15 1 16
REMARK H PARENT
REMARK Flexibility Score: inf
ROOT
ATOM      1  C   UNL     1     -13.045  19.208 -10.700  1.00  0.00     0.000 C 
ENDROOT
BRANCH   1   2
ATOM      2  C   UNL     1     -13.173  18.985 -12.215  1.00  0.00     0.000 C 
BRANCH   2   3
ATOM      3  C   UNL     1     -12.004  19.639 -12.966  1.00  0.00     0.000 C 
BRANCH   3   4
ATOM      4  C   UNL     1     -12.025  19.339 -14.474  1.00  0.00     0.000 C 
BRANCH   4   5
ATOM      5  C   UNL     1     -13.390  18.825 -14.958  1.00  0.00     0.006 C 
BRANCH   5   6
ATOM      6  C   UNL     1     -13.233  17.942 -16.200  1.00  0.00     0.053 C 
BRANCH   6   7
ATOM      7  C   UNL     1     -14.574  17.564 -16.746  1.00  0.00     0.041 C 
ATOM      8  O   UNL     1     -14.678  16.618 -17.571  1.00  0.00    -0.550 OA
ATOM      9  O   UNL     1     -15.715  18.224 -16.306  1.00  0.00    -0.550 OA
ENDBRANCH   6   7
ENDBRANCH   5   6
ENDBRANCH   4   5
ENDBRANCH   3   4
ENDBRANCH   2   3
ENDBRANCH   1   2
BRANCH   1  10
ATOM     10  C   UNL     1     -12.687  17.921  -9.939  1.00  0.00     0.000 C 
BRANCH  10  11
ATOM     11  C   UNL     1     -12.812  18.083  -8.413  1.00  0.00    -0.000 C 
BRANCH  11  12
ATOM     12  C   UNL     1     -13.633  19.320  -8.015  1.00  0.00    -0.000 C 
BRANCH  12  13
ATOM     13  C   UNL     1     -13.319  19.808  -6.593  1.00  0.00    -0.000 C 
BRANCH  13  14
ATOM     14  C   UNL     1     -12.414  21.047  -6.627  1.00  0.00    -0.000 C 
BRANCH  14  15
ATOM     15  C   UNL     1     -12.288  21.598  -8.051  1.00  0.00    -0.003 C 
ATOM     16  C   UNL     1     -10.855  21.477  -8.563  1.00  0.00     0.004 C 
ENDBRANCH  14  15
ENDBRANCH  13  14
ENDBRANCH  12  13
ENDBRANCH  11  12
ENDBRANCH  10  11
ENDBRANCH   1  10
TORSDOF 12
ENDMDL
MODEL 5
REMARK VINA RESULT:     8.735      5.189      9.904
REMARK INTER + INTRA:          14.549
REMARK INTER:                  14.917
REMARK INTRA:                  -0.368
REMARK UNBOUND:                -0.314
REMARK SMILES CCCCCCCCCCCCCC(=O)[O-]
REMARK SMILES IDX 8 1 9 2 10 3 11 4 12 5 13 6 14 7 15 8 16 9 7 10 6 11 5 12
REMARK SMILES IDX 4 13 3 14 2 15 1 16
REMARK H PARENT
REMARK Flexibility Score: inf
ROOT
ATOM      1  C   UNL     1     -10.928  19.295 -15.931  1.00  0.00     0.000 C 
ENDROOT
BRANCH   1   2
ATOM      2  C   UNL     1     -11.659  20.117 -14.858  1.00  0.00     0.000 C 
BRANCH   2   3
ATOM      3  C   UNL     1     -11.626  19.400 -13.501  1.00  0.00     0.000 C 
BRANCH   3   4
ATOM      4  C   UNL     1     -13.029  19.048 -12.981  1.00  0.00     0.000 C 
BRANCH   4   5
ATOM      5  C   UNL     1     -13.012  18.506 -11.544  1.00  0.00     0.006 C 
BRANCH   5   6
ATOM      6  C   UNL     1     -13.131  19.646 -10.528  1.00  0.00     0.053 C 
BRANCH   6   7
ATOM      7  C   UNL     1     -12.869  19.144  -9.144  1.00  0.00     0.041 C 
ATOM      8  O   UNL     1     -12.564  17.936  -8.955  1.00  0.00    -0.550 OA
ATOM      9  O   UNL     1     -12.911  20.020  -8.067  1.00  0.00    -0.550 OA
ENDBRANCH   6   7
ENDBRANCH   5   6
ENDBRANCH   4   5
ENDBRANCH   3   4
ENDBRANCH   2   3
ENDBRANCH   1   2
BRANCH   1  10
ATOM     10  C   UNL     1     -10.973  19.955 -17.319  1.00  0.00     0.000 C 
BRANCH  10  11
ATOM     11  C   UNL     1     -11.627  19.054 -18.381  1.00  0.00    -0.000 C 
BRANCH  11  12
ATOM     12  C   UNL     1     -11.986  19.819 -19.665  1.00  0.00    -0.000 C 
BRANCH  12  13
ATOM     13  C   UNL     1     -13.384  19.467 -20.194  1.00  0.00    -0.000 C 
BRANCH  13  14
ATOM     14  C   UNL     1     -14.034  20.677 -20.877  1.00  0.00    -0.000 C 
BRANCH  14  15
ATOM     15  C   UNL     1     -13.563  20.808 -22.329  1.00  0.00    -0.003 C 
ATOM     16  C   UNL     1     -13.658  19.473 -23.062  1.00  0.00     0.004 C 
ENDBRANCH  14  15
ENDBRANCH  13  14
ENDBRANCH  12  13
ENDBRANCH  11  12
ENDBRANCH  10  11
ENDBRANCH   1  10
TORSDOF 12
ENDMDL
MODEL 6
REMARK VINA RESULT:     9.075      6.017      9.783
REMARK INTER + INTRA:          15.127
REMARK INTER:                  15.269
REMARK INTRA:                  -0.142
REMARK UNBOUND:                -0.314
REMARK SMILES CCCCCCCCCCCCCC(=O)[O-]
REMARK SMILES IDX 8 1 9 2 10 3 11 4 12 5 13 6 14 7 15 8 16 9 7 10 6 11 5 12
REMARK SMILES IDX 4 13 3 14 2 15 1 16
REMARK H PARENT
REMARK Flexibility Score: inf
ROOT
ATOM      1  C   UNL     1     -13.316  18.158 -11.305  1.00  0.00     0.000 C 
ENDROOT
BRANCH   1   2
ATOM      2  C   UNL     1     -12.332  17.325 -10.469  1.00  0.00     0.000 C 
BRANCH   2   3
ATOM      3  C   UNL     1     -12.340  17.778  -9.002  1.00  0.00     0.000 C 
BRANCH   3   4
ATOM      4  C   UNL     1     -13.743  18.169  -8.510  1.00  0.00     0.000 C 
BRANCH   4   5
ATOM      5  C   UNL     1     -13.846  19.655  -8.132  1.00  0.00     0.006 C 
BRANCH   5   6
ATOM      6  C   UNL     1     -12.711  20.462  -8.769  1.00  0.00     0.053 C 
BRANCH   6   7
ATOM      7  C   UNL     1     -11.923  21.177  -7.718  1.00  0.00     0.041 C 
ATOM      8  O   UNL     1     -12.381  21.291  -6.550  1.00  0.00    -0.550 OA
ATOM      9  O   UNL     1     -10.661  21.676  -8.014  1.00  0.00    -0.550 OA
ENDBRANCH   6   7
ENDBRANCH   5   6
ENDBRANCH   4   5
ENDBRANCH   3   4
ENDBRANCH   2   3
ENDBRANCH   1   2
BRANCH   1  10
ATOM     10  C   UNL     1     -12.796  19.574 -11.598  1.00  0.00     0.000 C 
BRANCH  10  11
ATOM     11  C   UNL     1     -12.180  19.701 -13.002  1.00  0.00    -0.000 C 
BRANCH  11  12
ATOM     12  C   UNL     1     -13.024  19.004 -14.082  1.00  0.00    -0.000 C 
BRANCH  12  13
ATOM     13  C   UNL     1     -12.208  18.644 -15.332  1.00  0.00    -0.000 C 
BRANCH  13  14
ATOM     14  C   UNL     1     -10.846  19.350 -15.321  1.00  0.00    -0.000 C 
BRANCH  14  15
ATOM     15  C   UNL     1     -10.455  19.815 -16.728  1.00  0.00    -0.003 C 
ATOM     16  C   UNL     1     -10.071  21.292 -16.733  1.00  0.00     0.004 C 
ENDBRANCH  14  15
ENDBRANCH  13  14
ENDBRANCH  12  13
ENDBRANCH  11  12
ENDBRANCH  10  11
ENDBRANCH   1  10
TORSDOF 12
ENDMDL
MODEL 7
REMARK VINA RESULT:     9.121      3.410      5.101
REMARK INTER + INTRA:          15.206
REMARK INTER:                  16.025
REMARK INTRA:                  -0.819
REMARK UNBOUND:                -0.314
REMARK SMILES CCCCCCCCCCCCCC(=O)[O-]
REMARK SMILES IDX 8 1 9 2 10 3 11 4 12 5 13 6 14 7 15 8 16 9 7 10 6 11 5 12
REMARK SMILES IDX 4 13 3 14 2 15 1 16
REMARK H PARENT
REMARK Flexibility Score: inf
ROOT
ATOM      1  C   UNL     1     -13.171  18.183 -11.352  1.00  0.00     0.000 C 
ENDROOT
BRANCH   1   2
ATOM      2  C   UNL     1     -12.663  19.624 -11.521  1.00  0.00     0.000 C 
BRANCH   2   3
ATOM      3  C   UNL     1     -12.263  19.896 -12.978  1.00  0.00     0.000 C 
BRANCH   3   4
ATOM      4  C   UNL     1     -12.831  18.853 -13.955  1.00  0.00     0.000 C 
BRANCH   4   5
ATOM      5  C   UNL     1     -11.950  18.662 -15.199  1.00  0.00     0.006 C 
BRANCH   5   6
ATOM      6  C   UNL     1     -10.808  19.683 -15.222  1.00  0.00     0.053 C 
BRANCH   6   7
ATOM      7  C   UNL     1     -10.540  20.136 -16.622  1.00  0.00     0.041 C 
ATOM      8  O   UNL     1     -10.904  19.428 -17.598  1.00  0.00    -0.550 OA
ATOM      9  O   UNL     1      -9.933  21.364 -16.852  1.00  0.00    -0.550 OA
ENDBRANCH   6   7
ENDBRANCH   5   6
ENDBRANCH   4   5
ENDBRANCH   3   4
ENDBRANCH   2   3
ENDBRANCH   1   2
BRANCH   1  10
ATOM     10  C   UNL     1     -12.343  17.376 -10.339  1.00  0.00     0.000 C 
BRANCH  10  11
ATOM     11  C   UNL     1     -12.586  17.824  -8.887  1.00  0.00    -0.000 C 
BRANCH  11  12
ATOM     12  C   UNL     1     -13.969  18.464  -8.689  1.00  0.00    -0.000 C 
BRANCH  12  13
ATOM     13  C   UNL     1     -13.886  19.931  -8.243  1.00  0.00    -0.000 C 
BRANCH  13  14
ATOM     14  C   UNL     1     -13.086  20.065  -6.941  1.00  0.00    -0.000 C 
BRANCH  14  15
ATOM     15  C   UNL     1     -12.096  21.232  -7.020  1.00  0.00    -0.003 C 
ATOM     16  C   UNL     1     -11.754  21.567  -8.469  1.00  0.00     0.004 C 
ENDBRANCH  14  15
ENDBRANCH  13  14
ENDBRANCH  12  13
ENDBRANCH  11  12
ENDBRANCH  10  11
ENDBRANCH   1  10
TORSDOF 12
ENDMDL
MODEL 8
REMARK VINA RESULT:     9.235     13.022     15.361
REMARK INTER + INTRA:          15.399
REMARK INTER:                  15.761
REMARK INTRA:                  -0.362
REMARK UNBOUND:                -0.314
REMARK SMILES CCCCCCCCCCCCCC(=O)[O-]
REMARK SMILES IDX 8 1 9 2 10 3 11 4 12 5 13 6 14 7 15 8 16 9 7 10 6 11 5 12
REMARK SMILES IDX 4 13 3 14 2 15 1 16
REMARK H PARENT
REMARK Flexibility Score: inf
ROOT
ATOM      1  C   UNL     1      -7.382   6.457 -18.295  1.00  0.00     0.000 C 
ENDROOT
BRANCH   1   2
ATOM      2  C   UNL     1      -7.188   7.935 -18.667  1.00  0.00     0.000 C 
BRANCH   2   3
ATOM      3  C   UNL     1      -7.948   8.849 -17.694  1.00  0.00     0.000 C 
BRANCH   3   4
ATOM      4  C   UNL     1      -8.002  10.310 -18.172  1.00  0.00     0.000 C 
BRANCH   4   5
ATOM      5  C   UNL     1      -7.237  11.266 -17.244  1.00  0.00     0.006 C 
BRANCH   5   6
ATOM      6  C   UNL     1      -6.448  12.299 -18.053  1.00  0.00     0.053 C 
BRANCH   6   7
ATOM      7  C   UNL     1      -5.547  13.089 -17.157  1.00  0.00     0.041 C 
ATOM      8  O   UNL     1      -6.008  14.043 -16.477  1.00  0.00    -0.550 OA
ATOM      9  O   UNL     1      -4.208  12.740 -17.036  1.00  0.00    -0.550 OA
ENDBRANCH   6   7
ENDBRANCH   5   6
ENDBRANCH   4   5
ENDBRANCH   3   4
ENDBRANCH   2   3
ENDBRANCH   1   2
BRANCH   1  10
ATOM     10  C   UNL     1      -7.281   5.521 -19.510  1.00  0.00     0.000 C 
BRANCH  10  11
ATOM     11  C   UNL     1      -8.606   4.799 -19.813  1.00  0.00    -0.000 C 
BRANCH  11  12
ATOM     12  C   UNL     1      -8.414   3.558 -20.700  1.00  0.00    -0.000 C 
BRANCH  12  13
ATOM     13  C   UNL     1      -7.203   3.679 -21.636  1.00  0.00    -0.000 C 
BRANCH  13  14
ATOM     14  C   UNL     1      -7.641   4.086 -23.049  1.00  0.00    -0.000 C 
BRANCH  14  15
ATOM     15  C   UNL     1      -9.156   4.313 -23.112  1.00  0.00    -0.003 C 
ATOM     16  C   UNL     1      -9.490   5.801 -23.125  1.00  0.00     0.004 C 
ENDBRANCH  14  15
ENDBRANCH  13  14
ENDBRANCH  12  13
ENDBRANCH  11  12
ENDBRANCH  10  11
ENDBRANCH   1  10
TORSDOF 12
ENDMDL
MODEL 9
REMARK VINA RESULT:     9.240      5.941      9.705
REMARK INTER + INTRA:          15.409
REMARK INTER:                  14.595
REMARK INTRA:                   0.814
REMARK UNBOUND:                -0.314
REMARK SMILES CCCCCCCCCCCCCC(=O)[O-]
REMARK SMILES IDX 8 1 9 2 10 3 11 4 12 5 13 6 14 7 15 8 16 9 7 10 6 11 5 12
REMARK SMILES IDX 4 13 3 14 2 15 1 16
REMARK H PARENT
REMARK Flexibility Score: inf
ROOT
ATOM      1  C   UNL     1     -12.782  18.581 -12.442  1.00  0.00     0.000 C 
ENDROOT
BRANCH   1   2
ATOM      2  C   UNL     1     -13.152  18.838 -10.973  1.00  0.00     0.000 C 
BRANCH   2   3
ATOM      3  C   UNL     1     -12.711  17.665 -10.084  1.00  0.00     0.000 C 
BRANCH   3   4
ATOM      4  C   UNL     1     -12.521  18.073  -8.614  1.00  0.00     0.000 C 
BRANCH   4   5
ATOM      5  C   UNL     1     -13.472  19.200  -8.183  1.00  0.00     0.006 C 
BRANCH   5   6
ATOM      6  C   UNL     1     -12.994  20.554  -8.716  1.00  0.00     0.053 C 
BRANCH   6   7
ATOM      7  C   UNL     1     -12.040  21.188  -7.754  1.00  0.00     0.041 C 
ATOM      8  O   UNL     1     -10.932  21.630  -8.158  1.00  0.00    -0.550 OA
ATOM      9  O   UNL     1     -12.394  21.335  -6.419  1.00  0.00    -0.550 OA
ENDBRANCH   6   7
ENDBRANCH   5   6
ENDBRANCH   4   5
ENDBRANCH   3   4
ENDBRANCH   2   3
ENDBRANCH   1   2
BRANCH   1  10
ATOM     10  C   UNL     1     -12.115  19.796 -13.108  1.00  0.00     0.000 C 
BRANCH  10  11
ATOM     11  C   UNL     1     -11.745  19.535 -14.579  1.00  0.00    -0.000 C 
BRANCH  11  12
ATOM     12  C   UNL     1     -12.734  18.588 -15.278  1.00  0.00    -0.000 C 
BRANCH  12  13
ATOM     13  C   UNL     1     -14.183  18.797 -14.816  1.00  0.00    -0.000 C 
BRANCH  13  14
ATOM     14  C   UNL     1     -15.173  18.261 -15.858  1.00  0.00    -0.000 C 
BRANCH  14  15
ATOM     15  C   UNL     1     -14.443  17.788 -17.120  1.00  0.00    -0.003 C 
ATOM     16  C   UNL     1     -14.863  16.372 -17.501  1.00  0.00     0.004 C 
ENDBRANCH  14  15
ENDBRANCH  13  14
ENDBRANCH  12  13
ENDBRANCH  11  12
ENDBRANCH  10  11
ENDBRANCH   1  10
TORSDOF 12
ENDMDL
