MODEL 1
REMARK VINA RESULT:    -3.179      0.000      0.000
REMARK INTER + INTRA:          -4.033
REMARK INTER:                  -3.737
REMARK INTRA:                  -0.296
REMARK UNBOUND:                -0.296
REMARK SMILES O=c1c(O)c(-c2ccc(O)cc2)oc2cc(O)cc(O)c12
REMARK SMILES IDX 5 1 3 2 2 3 1 4 21 5 19 6 18 7 16 8 15 9 14 10 13 11 6 12
REMARK SMILES IDX 7 13 8 14 9 15 12 16 11 17 10 18 4 20 20 22 17 24
REMARK H PARENT 10 19 4 21 20 23 17 25
REMARK Flexibility Score: inf
ROOT
ATOM      1  C   UNL     1     -17.623 -12.805 -21.584  1.00  0.00     0.180 A 
ATOM      2  C   UNL     1     -18.897 -12.657 -22.159  1.00  0.00     0.208 A 
ATOM      3  C   UNL     1     -19.013 -12.622 -23.557  1.00  0.00     0.238 A 
ATOM      4  O   UNL     1     -20.146 -12.415 -24.064  1.00  0.00    -0.285 OA
ATOM      5  C   UNL     1     -17.861 -12.792 -24.365  1.00  0.00     0.111 A 
ATOM      6  C   UNL     1     -17.866 -12.820 -25.793  1.00  0.00     0.134 A 
ATOM      7  C   UNL     1     -16.652 -12.887 -26.487  1.00  0.00     0.093 A 
ATOM      8  C   UNL     1     -15.438 -12.993 -25.806  1.00  0.00     0.123 A 
ATOM      9  C   UNL     1     -15.425 -13.023 -24.414  1.00  0.00     0.094 A 
ATOM     10  C   UNL     1     -16.618 -12.919 -23.692  1.00  0.00     0.146 A 
ATOM     11  O   UNL     1     -16.558 -12.929 -22.367  1.00  0.00    -0.452 OA
ENDROOT
BRANCH   1  12
ATOM     12  C   UNL     1     -17.418 -12.835 -20.117  1.00  0.00     0.021 A 
ATOM     13  C   UNL     1     -17.213 -11.654 -19.381  1.00  0.00     0.016 A 
ATOM     14  C   UNL     1     -16.997 -11.710 -18.001  1.00  0.00     0.047 A 
ATOM     15  C   UNL     1     -16.970 -12.946 -17.342  1.00  0.00     0.115 A 
ATOM     16  C   UNL     1     -17.368 -14.071 -19.452  1.00  0.00     0.016 A 
ATOM     17  C   UNL     1     -17.153 -14.125 -18.071  1.00  0.00     0.047 A 
BRANCH  15  18
ATOM     18  O   UNL     1     -16.758 -13.015 -15.967  1.00  0.00    -0.508 OA
ATOM     19  H   UNL     1     -17.505 -13.260 -15.327  1.00  0.00     0.293 HD
ENDBRANCH  15  18
ENDBRANCH   1  12
BRANCH   2  20
ATOM     20  O   UNL     1     -20.030 -12.568 -21.345  1.00  0.00    -0.502 OA
ATOM     21  H   UNL     1     -20.207 -13.218 -20.588  1.00  0.00     0.293 HD
ENDBRANCH   2  20
BRANCH   6  22
ATOM     22  O   UNL     1     -19.028 -12.809 -26.571  1.00  0.00    -0.507 OA
ATOM     23  H   UNL     1     -19.968 -12.791 -26.207  1.00  0.00     0.293 HD
ENDBRANCH   6  22
BRANCH   8  24
ATOM     24  O   UNL     1     -14.235 -13.077 -26.505  1.00  0.00    -0.508 OA
ATOM     25  H   UNL     1     -13.783 -12.253 -26.882  1.00  0.00     0.293 HD
ENDBRANCH   8  24
TORSDOF 5
ENDMDL
MODEL 2
REMARK VINA RESULT:    -2.269     19.238     21.461
REMARK INTER + INTRA:          -2.964
REMARK INTER:                  -3.111
REMARK INTRA:                   0.147
REMARK UNBOUND:                -0.296
REMARK SMILES O=c1c(O)c(-c2ccc(O)cc2)oc2cc(O)cc(O)c12
REMARK SMILES IDX 5 1 3 2 2 3 1 4 21 5 19 6 18 7 16 8 15 9 14 10 13 11 6 12
REMARK SMILES IDX 7 13 8 14 9 15 12 16 11 17 10 18 4 20 20 22 17 24
REMARK H PARENT 10 19 4 21 20 23 17 25
REMARK Flexibility Score: inf
ROOT
ATOM      1  C   UNL     1     -32.342  -0.013 -26.902  1.00  0.00     0.180 A 
ATOM      2  C   UNL     1     -32.016   0.292 -25.569  1.00  0.00     0.208 A 
ATOM      3  C   UNL     1     -31.973   1.636 -25.169  1.00  0.00     0.238 A 
ATOM      4  O   UNL     1     -31.607   1.905 -23.995  1.00  0.00    -0.285 OA
ATOM      5  C   UNL     1     -32.310   2.658 -26.092  1.00  0.00     0.111 A 
ATOM      6  C   UNL     1     -32.345   4.052 -25.783  1.00  0.00     0.134 A 
ATOM      7  C   UNL     1     -32.589   4.979 -26.804  1.00  0.00     0.093 A 
ATOM      8  C   UNL     1     -32.865   4.559 -28.107  1.00  0.00     0.123 A 
ATOM      9  C   UNL     1     -32.888   3.200 -28.406  1.00  0.00     0.094 A 
ATOM     10  C   UNL     1     -32.611   2.252 -27.418  1.00  0.00     0.146 A 
ATOM     11  O   UNL     1     -32.622   0.968 -27.752  1.00  0.00    -0.452 OA
ENDROOT
BRANCH   1  12
ATOM     12  C   UNL     1     -32.394  -1.406 -27.403  1.00  0.00     0.021 A 
ATOM     13  C   UNL     1     -31.857  -1.755 -28.656  1.00  0.00     0.016 A 
ATOM     14  C   UNL     1     -31.939  -3.071 -29.118  1.00  0.00     0.047 A 
ATOM     15  C   UNL     1     -32.571  -4.052 -28.342  1.00  0.00     0.115 A 
ATOM     16  C   UNL     1     -33.044  -2.391 -26.642  1.00  0.00     0.016 A 
ATOM     17  C   UNL     1     -33.125  -3.707 -27.105  1.00  0.00     0.047 A 
BRANCH  15  18
ATOM     18  O   UNL     1     -32.658  -5.368 -28.791  1.00  0.00    -0.508 OA
ATOM     19  H   UNL     1     -32.724  -5.587 -29.779  1.00  0.00     0.293 HD
ENDBRANCH  15  18
ENDBRANCH   1  12
BRANCH   2  20
ATOM     20  O   UNL     1     -31.761  -0.734 -24.655  1.00  0.00    -0.502 OA
ATOM     21  H   UNL     1     -32.444  -1.033 -23.969  1.00  0.00     0.293 HD
ENDBRANCH   2  20
BRANCH   6  22
ATOM     22  O   UNL     1     -32.171   4.574 -24.497  1.00  0.00    -0.507 OA
ATOM     23  H   UNL     1     -32.907   4.955 -23.924  1.00  0.00     0.293 HD
ENDBRANCH   6  22
BRANCH   8  24
ATOM     24  O   UNL     1     -33.124   5.489 -29.113  1.00  0.00    -0.508 OA
ATOM     25  H   UNL     1     -32.450   5.681 -29.843  1.00  0.00     0.293 HD
ENDBRANCH   8  24
TORSDOF 5
ENDMDL
MODEL 3
REMARK VINA RESULT:    -0.752      1.381      3.041
REMARK INTER + INTRA:          -1.180
REMARK INTER:                  -0.910
REMARK INTRA:                  -0.270
REMARK UNBOUND:                -0.296
REMARK SMILES O=c1c(O)c(-c2ccc(O)cc2)oc2cc(O)cc(O)c12
REMARK SMILES IDX 5 1 3 2 2 3 1 4 21 5 19 6 18 7 16 8 15 9 14 10 13 11 6 12
REMARK SMILES IDX 7 13 8 14 9 15 12 16 11 17 10 18 4 20 20 22 17 24
REMARK H PARENT 10 19 4 21 20 23 17 25
REMARK Flexibility Score: inf
ROOT
ATOM      1  C   UNL     1     -16.496 -12.834 -20.844  1.00  0.00     0.180 A 
ATOM      2  C   UNL     1     -15.183 -12.859 -21.344  1.00  0.00     0.208 A 
ATOM      3  C   UNL     1     -14.983 -12.851 -22.733  1.00  0.00     0.238 A 
ATOM      4  O   UNL     1     -13.809 -12.949 -23.174  1.00  0.00    -0.285 OA
ATOM      5  C   UNL     1     -16.096 -12.759 -23.605  1.00  0.00     0.111 A 
ATOM      6  C   UNL     1     -16.010 -12.697 -25.030  1.00  0.00     0.134 A 
ATOM      7  C   UNL     1     -17.182 -12.716 -25.794  1.00  0.00     0.093 A 
ATOM      8  C   UNL     1     -18.439 -12.729 -25.185  1.00  0.00     0.123 A 
ATOM      9  C   UNL     1     -18.535 -12.735 -23.796  1.00  0.00     0.094 A 
ATOM     10  C   UNL     1     -17.383 -12.755 -23.006  1.00  0.00     0.146 A 
ATOM     11  O   UNL     1     -17.521 -12.781 -21.687  1.00  0.00    -0.452 OA
ENDROOT
BRANCH   1  12
ATOM     12  C   UNL     1     -16.788 -12.856 -19.392  1.00  0.00     0.021 A 
ATOM     13  C   UNL     1     -17.020 -11.669 -18.672  1.00  0.00     0.016 A 
ATOM     14  C   UNL     1     -17.269 -11.713 -17.298  1.00  0.00     0.047 A 
ATOM     15  C   UNL     1     -17.278 -12.941 -16.623  1.00  0.00     0.115 A 
ATOM     16  C   UNL     1     -16.778 -14.080 -18.703  1.00  0.00     0.016 A 
ATOM     17  C   UNL     1     -17.029 -14.122 -17.328  1.00  0.00     0.047 A 
BRANCH  15  18
ATOM     18  O   UNL     1     -17.528 -12.998 -15.254  1.00  0.00    -0.508 OA
ATOM     19  H   UNL     1     -18.394 -13.378 -14.889  1.00  0.00     0.293 HD
ENDBRANCH  15  18
ENDBRANCH   1  12
BRANCH   2  20
ATOM     20  O   UNL     1     -14.096 -12.872 -20.465  1.00  0.00    -0.502 OA
ATOM     21  H   UNL     1     -13.322 -13.517 -20.568  1.00  0.00     0.293 HD
ENDBRANCH   2  20
BRANCH   6  22
ATOM     22  O   UNL     1     -14.808 -12.591 -25.737  1.00  0.00    -0.507 OA
ATOM     23  H   UNL     1     -14.497 -13.234 -26.449  1.00  0.00     0.293 HD
ENDBRANCH   6  22
BRANCH   8  24
ATOM     24  O   UNL     1     -19.601 -12.730 -25.954  1.00  0.00    -0.508 OA
ATOM     25  H   UNL     1     -20.045 -11.868 -26.245  1.00  0.00     0.293 HD
ENDBRANCH   8  24
TORSDOF 5
ENDMDL
MODEL 4
REMARK VINA RESULT:    -0.587     18.387     20.010
REMARK INTER + INTRA:          -0.986
REMARK INTER:                  -0.817
REMARK INTRA:                  -0.169
REMARK UNBOUND:                -0.296
REMARK SMILES O=c1c(O)c(-c2ccc(O)cc2)oc2cc(O)cc(O)c12
REMARK SMILES IDX 5 1 3 2 2 3 1 4 21 5 19 6 18 7 16 8 15 9 14 10 13 11 6 12
REMARK SMILES IDX 7 13 8 14 9 15 12 16 11 17 10 18 4 20 20 22 17 24
REMARK H PARENT 10 19 4 21 20 23 17 25
REMARK Flexibility Score: inf
ROOT
ATOM      1  C   UNL     1     -31.406   0.099 -24.456  1.00  0.00     0.180 A 
ATOM      2  C   UNL     1     -31.697  -0.680 -25.589  1.00  0.00     0.208 A 
ATOM      3  C   UNL     1     -32.224  -0.052 -26.729  1.00  0.00     0.238 A 
ATOM      4  O   UNL     1     -32.552  -0.765 -27.713  1.00  0.00    -0.285 OA
ATOM      5  C   UNL     1     -32.401   1.354 -26.742  1.00  0.00     0.111 A 
ATOM      6  C   UNL     1     -32.884   2.102 -27.859  1.00  0.00     0.134 A 
ATOM      7  C   UNL     1     -33.119   3.475 -27.720  1.00  0.00     0.093 A 
ATOM      8  C   UNL     1     -32.826   4.139 -26.527  1.00  0.00     0.123 A 
ATOM      9  C   UNL     1     -32.303   3.429 -25.450  1.00  0.00     0.094 A 
ATOM     10  C   UNL     1     -32.094   2.051 -25.545  1.00  0.00     0.146 A 
ATOM     11  O   UNL     1     -31.614   1.410 -24.486  1.00  0.00    -0.452 OA
ENDROOT
BRANCH   1  12
ATOM     12  C   UNL     1     -30.863  -0.492 -23.211  1.00  0.00     0.021 A 
ATOM     13  C   UNL     1     -31.618  -0.525 -22.024  1.00  0.00     0.016 A 
ATOM     14  C   UNL     1     -31.075  -1.065 -20.855  1.00  0.00     0.047 A 
ATOM     15  C   UNL     1     -29.767  -1.568 -20.854  1.00  0.00     0.115 A 
ATOM     16  C   UNL     1     -29.546  -0.979 -23.194  1.00  0.00     0.016 A 
ATOM     17  C   UNL     1     -29.005  -1.521 -22.025  1.00  0.00     0.047 A 
BRANCH  15  18
ATOM     18  O   UNL     1     -29.215  -2.111 -19.696  1.00  0.00    -0.508 OA
ATOM     19  H   UNL     1     -28.520  -1.610 -19.155  1.00  0.00     0.293 HD
ENDBRANCH  15  18
ENDBRANCH   1  12
BRANCH   2  20
ATOM     20  O   UNL     1     -31.444  -2.054 -25.583  1.00  0.00    -0.502 OA
ATOM     21  H   UNL     1     -31.200  -2.566 -26.423  1.00  0.00     0.293 HD
ENDBRANCH   2  20
BRANCH   6  22
ATOM     22  O   UNL     1     -33.125   1.554 -29.123  1.00  0.00    -0.507 OA
ATOM     23  H   UNL     1     -33.557   2.042 -29.892  1.00  0.00     0.293 HD
ENDBRANCH   6  22
BRANCH   8  24
ATOM     24  O   UNL     1     -33.047   5.510 -26.405  1.00  0.00    -0.508 OA
ATOM     25  H   UNL     1     -33.383   6.064 -27.183  1.00  0.00     0.293 HD
ENDBRANCH   8  24
TORSDOF 5
ENDMDL
