MODEL 1
REMARK VINA RESULT:    -4.220      0.000      0.000
REMARK INTER + INTRA:         -13.541
REMARK INTER:                  -9.647
REMARK INTRA:                  -3.894
REMARK UNBOUND:                -3.894
REMARK SMILES CCCCCCCCCCCCCCCCCCCCCCCC(=O)[O-]
REMARK SMILES IDX 13 1 14 2 15 3 16 4 17 5 18 6 19 7 20 8 21 9 22 10 23 11
REMARK SMILES IDX 24 12 25 13 26 14 12 15 11 16 10 17 9 18 8 19 7 20 6 21 5 22
REMARK SMILES IDX 4 23 3 24 2 25 1 26
REMARK H PARENT
REMARK Flexibility Score: inf
ROOT
ATOM      1  C   UNL     1      46.726   5.124  23.275  1.00  0.00     0.000 C 
ENDROOT
BRANCH   1   2
ATOM      2  C   UNL     1      45.779   6.006  22.444  1.00  0.00     0.000 C 
BRANCH   2   3
ATOM      3  C   UNL     1      44.374   5.402  22.296  1.00  0.00     0.000 C 
BRANCH   3   4
ATOM      4  C   UNL     1      44.399   3.876  22.089  1.00  0.00     0.000 C 
BRANCH   4   5
ATOM      5  C   UNL     1      44.478   3.492  20.603  1.00  0.00     0.000 C 
BRANCH   5   6
ATOM      6  C   UNL     1      45.921   3.200  20.155  1.00  0.00     0.000 C 
BRANCH   6   7
ATOM      7  C   UNL     1      46.594   2.098  20.992  1.00  0.00     0.000 C 
BRANCH   7   8
ATOM      8  C   UNL     1      48.024   1.737  20.552  1.00  0.00     0.000 C 
BRANCH   8   9
ATOM      9  C   UNL     1      49.014   1.674  21.729  1.00  0.00     0.000 C 
BRANCH   9  10
ATOM     10  C   UNL     1      50.395   2.253  21.374  1.00  0.00     0.006 C 
BRANCH  10  11
ATOM     11  C   UNL     1      50.354   3.358  20.309  1.00  0.00     0.053 C 
BRANCH  11  12
ATOM     12  C   UNL     1      51.515   3.271  19.368  1.00  0.00     0.041 C 
ATOM     13  O   UNL     1      51.824   4.255  18.646  1.00  0.00    -0.550 OA
ATOM     14  O   UNL     1      52.238   2.088  19.266  1.00  0.00    -0.550 OA
ENDBRANCH  11  12
ENDBRANCH  10  11
ENDBRANCH   9  10
ENDBRANCH   8   9
ENDBRANCH   7   8
ENDBRANCH   6   7
ENDBRANCH   5   6
ENDBRANCH   4   5
ENDBRANCH   3   4
ENDBRANCH   2   3
ENDBRANCH   1   2
BRANCH   1  15
ATOM     15  C   UNL     1      48.172   5.150  22.752  1.00  0.00     0.000 C 
BRANCH  15  16
ATOM     16  C   UNL     1      48.410   6.185  21.632  1.00  0.00     0.000 C 
BRANCH  16  17
ATOM     17  C   UNL     1      49.458   7.240  22.030  1.00  0.00     0.000 C 
BRANCH  17  18
ATOM     18  C   UNL     1      49.923   7.092  23.489  1.00  0.00    -0.000 C 
BRANCH  18  19
ATOM     19  C   UNL     1      49.668   8.361  24.320  1.00  0.00    -0.000 C 
BRANCH  19  20
ATOM     20  C   UNL     1      48.185   8.792  24.308  1.00  0.00    -0.000 C 
BRANCH  20  21
ATOM     21  C   UNL     1      47.453   8.558  25.644  1.00  0.00    -0.000 C 
BRANCH  21  22
ATOM     22  C   UNL     1      47.420   7.096  26.130  1.00  0.00    -0.000 C 
BRANCH  22  23
ATOM     23  C   UNL     1      47.964   6.870  27.554  1.00  0.00    -0.000 C 
BRANCH  23  24
ATOM     24  C   UNL     1      49.466   6.549  27.578  1.00  0.00    -0.000 C 
BRANCH  24  25
ATOM     25  C   UNL     1      49.775   5.336  26.690  1.00  0.00    -0.003 C 
ATOM     26  C   UNL     1      49.115   4.072  27.230  1.00  0.00     0.004 C 
ENDBRANCH  24  25
ENDBRANCH  23  24
ENDBRANCH  22  23
ENDBRANCH  21  22
ENDBRANCH  20  21
ENDBRANCH  19  20
ENDBRANCH  18  19
ENDBRANCH  17  18
ENDBRANCH  16  17
ENDBRANCH  15  16
ENDBRANCH   1  15
TORSDOF 22
ENDMDL
MODEL 2
REMARK VINA RESULT:    -4.185      3.001      5.903
REMARK INTER + INTRA:         -13.462
REMARK INTER:                  -9.346
REMARK INTRA:                  -4.116
REMARK UNBOUND:                -3.894
REMARK SMILES CCCCCCCCCCCCCCCCCCCCCCCC(=O)[O-]
REMARK SMILES IDX 13 1 14 2 15 3 16 4 17 5 18 6 19 7 20 8 21 9 22 10 23 11
REMARK SMILES IDX 24 12 25 13 26 14 12 15 11 16 10 17 9 18 8 19 7 20 6 21 5 22
REMARK SMILES IDX 4 23 3 24 2 25 1 26
REMARK H PARENT
REMARK Flexibility Score: inf
ROOT
ATOM      1  C   UNL     1      47.884   2.187  20.612  1.00  0.00     0.000 C 
ENDROOT
BRANCH   1   2
ATOM      2  C   UNL     1      48.252   0.810  21.189  1.00  0.00     0.000 C 
BRANCH   2   3
ATOM      3  C   UNL     1      47.023  -0.013  21.604  1.00  0.00     0.000 C 
BRANCH   3   4
ATOM      4  C   UNL     1      47.386  -1.235  22.467  1.00  0.00     0.000 C 
BRANCH   4   5
ATOM      5  C   UNL     1      48.498  -0.921  23.481  1.00  0.00     0.000 C 
BRANCH   5   6
ATOM      6  C   UNL     1      49.586  -2.008  23.505  1.00  0.00     0.000 C 
BRANCH   6   7
ATOM      7  C   UNL     1      51.010  -1.426  23.559  1.00  0.00     0.000 C 
BRANCH   7   8
ATOM      8  C   UNL     1      51.303  -0.344  22.504  1.00  0.00     0.000 C 
BRANCH   8   9
ATOM      9  C   UNL     1      51.289   1.080  23.088  1.00  0.00     0.000 C 
BRANCH   9  10
ATOM     10  C   UNL     1      51.919   2.115  22.140  1.00  0.00     0.006 C 
BRANCH  10  11
ATOM     11  C   UNL     1      52.418   1.526  20.812  1.00  0.00     0.053 C 
BRANCH  11  12
ATOM     12  C   UNL     1      52.921   2.586  19.883  1.00  0.00     0.041 C 
ATOM     13  O   UNL     1      52.157   3.087  19.017  1.00  0.00    -0.550 OA
ATOM     14  O   UNL     1      54.247   2.998  19.954  1.00  0.00    -0.550 OA
ENDBRANCH  11  12
ENDBRANCH  10  11
ENDBRANCH   9  10
ENDBRANCH   8   9
ENDBRANCH   7   8
ENDBRANCH   6   7
ENDBRANCH   5   6
ENDBRANCH   4   5
ENDBRANCH   3   4
ENDBRANCH   2   3
ENDBRANCH   1   2
BRANCH   1  15
ATOM     15  C   UNL     1      46.418   2.264  20.152  1.00  0.00     0.000 C 
BRANCH  15  16
ATOM     16  C   UNL     1      45.686   3.539  20.621  1.00  0.00     0.000 C 
BRANCH  16  17
ATOM     17  C   UNL     1      44.217   3.263  20.992  1.00  0.00     0.000 C 
BRANCH  17  18
ATOM     18  C   UNL     1      43.881   1.763  20.997  1.00  0.00    -0.000 C 
BRANCH  18  19
ATOM     19  C   UNL     1      43.148   1.328  22.278  1.00  0.00    -0.000 C 
BRANCH  19  20
ATOM     20  C   UNL     1      43.581  -0.072  22.765  1.00  0.00    -0.000 C 
BRANCH  20  21
ATOM     21  C   UNL     1      43.672  -0.202  24.299  1.00  0.00    -0.000 C 
BRANCH  21  22
ATOM     22  C   UNL     1      44.272   1.015  25.028  1.00  0.00    -0.000 C 
BRANCH  22  23
ATOM     23  C   UNL     1      45.805   1.143  24.930  1.00  0.00    -0.000 C 
BRANCH  23  24
ATOM     24  C   UNL     1      46.254   2.364  24.113  1.00  0.00    -0.000 C 
BRANCH  24  25
ATOM     25  C   UNL     1      47.649   2.827  24.552  1.00  0.00    -0.003 C 
ATOM     26  C   UNL     1      48.122   4.016  23.723  1.00  0.00     0.004 C 
ENDBRANCH  24  25
ENDBRANCH  23  24
ENDBRANCH  22  23
ENDBRANCH  21  22
ENDBRANCH  20  21
ENDBRANCH  19  20
ENDBRANCH  18  19
ENDBRANCH  17  18
ENDBRANCH  16  17
ENDBRANCH  15  16
ENDBRANCH   1  15
TORSDOF 22
ENDMDL
MODEL 3
REMARK VINA RESULT:    -4.168      2.186      5.330
REMARK INTER + INTRA:         -13.423
REMARK INTER:                 -10.236
REMARK INTRA:                  -3.187
REMARK UNBOUND:                -3.894
REMARK SMILES CCCCCCCCCCCCCCCCCCCCCCCC(=O)[O-]
REMARK SMILES IDX 13 1 14 2 15 3 16 4 17 5 18 6 19 7 20 8 21 9 22 10 23 11
REMARK SMILES IDX 24 12 25 13 26 14 12 15 11 16 10 17 9 18 8 19 7 20 6 21 5 22
REMARK SMILES IDX 4 23 3 24 2 25 1 26
REMARK H PARENT
REMARK Flexibility Score: inf
ROOT
ATOM      1  C   UNL     1      48.711   5.983  26.972  1.00  0.00     0.000 C 
ENDROOT
BRANCH   1   2
ATOM      2  C   UNL     1      50.142   5.696  26.488  1.00  0.00     0.000 C 
BRANCH   2   3
ATOM      3  C   UNL     1      50.322   5.936  24.980  1.00  0.00     0.000 C 
BRANCH   3   4
ATOM      4  C   UNL     1      50.012   7.385  24.565  1.00  0.00     0.000 C 
BRANCH   4   5
ATOM      5  C   UNL     1      49.121   7.454  23.314  1.00  0.00     0.000 C 
BRANCH   5   6
ATOM      6  C   UNL     1      47.951   6.457  23.379  1.00  0.00     0.000 C 
BRANCH   6   7
ATOM      7  C   UNL     1      47.845   5.578  22.119  1.00  0.00     0.000 C 
BRANCH   7   8
ATOM      8  C   UNL     1      48.565   4.221  22.218  1.00  0.00     0.000 C 
BRANCH   8   9
ATOM      9  C   UNL     1      49.883   4.185  21.424  1.00  0.00     0.000 C 
BRANCH   9  10
ATOM     10  C   UNL     1      49.976   2.969  20.485  1.00  0.00     0.006 C 
BRANCH  10  11
ATOM     11  C   UNL     1      51.261   2.924  19.645  1.00  0.00     0.053 C 
BRANCH  11  12
ATOM     12  C   UNL     1      52.368   2.210  20.355  1.00  0.00     0.041 C 
ATOM     13  O   UNL     1      53.569   2.502  20.116  1.00  0.00    -0.550 OA
ATOM     14  O   UNL     1      52.072   1.198  21.261  1.00  0.00    -0.550 OA
ENDBRANCH  11  12
ENDBRANCH  10  11
ENDBRANCH   9  10
ENDBRANCH   8   9
ENDBRANCH   7   8
ENDBRANCH   6   7
ENDBRANCH   5   6
ENDBRANCH   4   5
ENDBRANCH   3   4
ENDBRANCH   2   3
ENDBRANCH   1   2
BRANCH   1  15
ATOM     15  C   UNL     1      48.667   7.011  28.116  1.00  0.00     0.000 C 
BRANCH  15  16
ATOM     16  C   UNL     1      47.436   7.940  28.069  1.00  0.00     0.000 C 
BRANCH  16  17
ATOM     17  C   UNL     1      47.242   8.577  26.681  1.00  0.00     0.000 C 
BRANCH  17  18
ATOM     18  C   UNL     1      45.833   8.338  26.112  1.00  0.00    -0.000 C 
BRANCH  18  19
ATOM     19  C   UNL     1      45.379   9.467  25.171  1.00  0.00    -0.000 C 
BRANCH  19  20
ATOM     20  C   UNL     1      46.420   9.784  24.076  1.00  0.00    -0.000 C 
BRANCH  20  21
ATOM     21  C   UNL     1      46.892  11.252  24.066  1.00  0.00    -0.000 C 
BRANCH  21  22
ATOM     22  C   UNL     1      46.627  12.020  22.757  1.00  0.00    -0.000 C 
BRANCH  22  23
ATOM     23  C   UNL     1      46.099  11.159  21.592  1.00  0.00    -0.000 C 
BRANCH  23  24
ATOM     24  C   UNL     1      47.113  11.011  20.448  1.00  0.00    -0.000 C 
BRANCH  24  25
ATOM     25  C   UNL     1      47.587   9.556  20.328  1.00  0.00    -0.003 C 
ATOM     26  C   UNL     1      46.426   8.582  20.491  1.00  0.00     0.004 C 
ENDBRANCH  24  25
ENDBRANCH  23  24
ENDBRANCH  22  23
ENDBRANCH  21  22
ENDBRANCH  20  21
ENDBRANCH  19  20
ENDBRANCH  18  19
ENDBRANCH  17  18
ENDBRANCH  16  17
ENDBRANCH  15  16
ENDBRANCH   1  15
TORSDOF 22
ENDMDL
MODEL 4
REMARK VINA RESULT:    -4.159      1.515      4.096
REMARK INTER + INTRA:         -13.402
REMARK INTER:                  -9.326
REMARK INTRA:                  -4.076
REMARK UNBOUND:                -3.894
REMARK SMILES CCCCCCCCCCCCCCCCCCCCCCCC(=O)[O-]
REMARK SMILES IDX 13 1 14 2 15 3 16 4 17 5 18 6 19 7 20 8 21 9 22 10 23 11
REMARK SMILES IDX 24 12 25 13 26 14 12 15 11 16 10 17 9 18 8 19 7 20 6 21 5 22
REMARK SMILES IDX 4 23 3 24 2 25 1 26
REMARK H PARENT
REMARK Flexibility Score: inf
ROOT
ATOM      1  C   UNL     1      46.981   4.231  21.403  1.00  0.00     0.000 C 
ENDROOT
BRANCH   1   2
ATOM      2  C   UNL     1      46.178   3.442  20.357  1.00  0.00     0.000 C 
BRANCH   2   3
ATOM      3  C   UNL     1      46.468   1.933  20.394  1.00  0.00     0.000 C 
BRANCH   3   4
ATOM      4  C   UNL     1      45.689   1.203  21.503  1.00  0.00     0.000 C 
BRANCH   4   5
ATOM      5  C   UNL     1      46.622   0.538  22.528  1.00  0.00     0.000 C 
BRANCH   5   6
ATOM      6  C   UNL     1      47.809  -0.175  21.856  1.00  0.00     0.000 C 
BRANCH   6   7
ATOM      7  C   UNL     1      49.172   0.322  22.371  1.00  0.00     0.000 C 
BRANCH   7   8
ATOM      8  C   UNL     1      49.133   1.690  23.076  1.00  0.00     0.000 C 
BRANCH   8   9
ATOM      9  C   UNL     1      50.205   2.663  22.552  1.00  0.00     0.000 C 
BRANCH   9  10
ATOM     10  C   UNL     1      50.788   2.227  21.197  1.00  0.00     0.006 C 
BRANCH  10  11
ATOM     11  C   UNL     1      50.503   3.207  20.048  1.00  0.00     0.053 C 
BRANCH  11  12
ATOM     12  C   UNL     1      51.690   3.380  19.153  1.00  0.00     0.041 C 
ATOM     13  O   UNL     1      52.563   2.476  19.073  1.00  0.00    -0.550 OA
ATOM     14  O   UNL     1      51.847   4.556  18.429  1.00  0.00    -0.550 OA
ENDBRANCH  11  12
ENDBRANCH  10  11
ENDBRANCH   9  10
ENDBRANCH   8   9
ENDBRANCH   7   8
ENDBRANCH   6   7
ENDBRANCH   5   6
ENDBRANCH   4   5
ENDBRANCH   3   4
ENDBRANCH   2   3
ENDBRANCH   1   2
BRANCH   1  15
ATOM     15  C   UNL     1      46.095   4.803  22.523  1.00  0.00     0.000 C 
BRANCH  15  16
ATOM     16  C   UNL     1      46.487   4.316  23.935  1.00  0.00     0.000 C 
BRANCH  16  17
ATOM     17  C   UNL     1      46.239   5.391  25.009  1.00  0.00     0.000 C 
BRANCH  17  18
ATOM     18  C   UNL     1      47.519   5.774  25.769  1.00  0.00    -0.000 C 
BRANCH  18  19
ATOM     19  C   UNL     1      48.712   4.873  25.406  1.00  0.00    -0.000 C 
BRANCH  19  20
ATOM     20  C   UNL     1      49.984   5.679  25.063  1.00  0.00    -0.000 C 
BRANCH  20  21
ATOM     21  C   UNL     1      50.000   6.245  23.629  1.00  0.00    -0.000 C 
BRANCH  21  22
ATOM     22  C   UNL     1      49.526   7.705  23.491  1.00  0.00    -0.000 C 
BRANCH  22  23
ATOM     23  C   UNL     1      48.664   7.995  22.246  1.00  0.00    -0.000 C 
BRANCH  23  24
ATOM     24  C   UNL     1      49.135   7.230  21.000  1.00  0.00    -0.000 C 
BRANCH  24  25
ATOM     25  C   UNL     1      49.952   8.145  20.078  1.00  0.00    -0.003 C 
ATOM     26  C   UNL     1      49.077   8.758  18.991  1.00  0.00     0.004 C 
ENDBRANCH  24  25
ENDBRANCH  23  24
ENDBRANCH  22  23
ENDBRANCH  21  22
ENDBRANCH  20  21
ENDBRANCH  19  20
ENDBRANCH  18  19
ENDBRANCH  17  18
ENDBRANCH  16  17
ENDBRANCH  15  16
ENDBRANCH   1  15
TORSDOF 22
ENDMDL
MODEL 5
REMARK VINA RESULT:    -4.156      1.851      6.552
REMARK INTER + INTRA:         -13.396
REMARK INTER:                  -9.278
REMARK INTRA:                  -4.118
REMARK UNBOUND:                -3.894
REMARK SMILES CCCCCCCCCCCCCCCCCCCCCCCC(=O)[O-]
REMARK SMILES IDX 13 1 14 2 15 3 16 4 17 5 18 6 19 7 20 8 21 9 22 10 23 11
REMARK SMILES IDX 24 12 25 13 26 14 12 15 11 16 10 17 9 18 8 19 7 20 6 21 5 22
REMARK SMILES IDX 4 23 3 24 2 25 1 26
REMARK H PARENT
REMARK Flexibility Score: inf
ROOT
ATOM      1  C   UNL     1      47.771   4.795  23.707  1.00  0.00     0.000 C 
ENDROOT
BRANCH   1   2
ATOM      2  C   UNL     1      48.295   3.974  24.896  1.00  0.00     0.000 C 
BRANCH   2   3
ATOM      3  C   UNL     1      49.088   4.820  25.904  1.00  0.00     0.000 C 
BRANCH   3   4
ATOM      4  C   UNL     1      49.969   5.885  25.227  1.00  0.00     0.000 C 
BRANCH   4   5
ATOM      5  C   UNL     1      49.711   7.294  25.784  1.00  0.00     0.000 C 
BRANCH   5   6
ATOM      6  C   UNL     1      48.258   7.474  26.257  1.00  0.00     0.000 C 
BRANCH   6   7
ATOM      7  C   UNL     1      47.369   8.164  25.206  1.00  0.00     0.000 C 
BRANCH   7   8
ATOM      8  C   UNL     1      48.135   9.001  24.166  1.00  0.00     0.000 C 
BRANCH   8   9
ATOM      9  C   UNL     1      47.974   8.466  22.732  1.00  0.00     0.000 C 
BRANCH   9  10
ATOM     10  C   UNL     1      49.284   7.890  22.164  1.00  0.00     0.006 C 
BRANCH  10  11
ATOM     11  C   UNL     1      49.161   7.351  20.731  1.00  0.00     0.053 C 
BRANCH  11  12
ATOM     12  C   UNL     1      49.793   8.269  19.732  1.00  0.00     0.041 C 
ATOM     13  O   UNL     1      51.005   8.132  19.421  1.00  0.00    -0.550 OA
ATOM     14  O   UNL     1      49.049   9.299  19.167  1.00  0.00    -0.550 OA
ENDBRANCH  11  12
ENDBRANCH  10  11
ENDBRANCH   9  10
ENDBRANCH   8   9
ENDBRANCH   7   8
ENDBRANCH   6   7
ENDBRANCH   5   6
ENDBRANCH   4   5
ENDBRANCH   3   4
ENDBRANCH   2   3
ENDBRANCH   1   2
BRANCH   1  15
ATOM     15  C   UNL     1      46.242   4.965  23.732  1.00  0.00     0.000 C 
BRANCH  15  16
ATOM     16  C   UNL     1      45.627   5.268  22.349  1.00  0.00     0.000 C 
BRANCH  16  17
ATOM     17  C   UNL     1      46.505   4.746  21.197  1.00  0.00     0.000 C 
BRANCH  17  18
ATOM     18  C   UNL     1      45.891   3.525  20.492  1.00  0.00    -0.000 C 
BRANCH  18  19
ATOM     19  C   UNL     1      46.956   2.520  20.021  1.00  0.00    -0.000 C 
BRANCH  19  20
ATOM     20  C   UNL     1      46.627   1.068  20.433  1.00  0.00    -0.000 C 
BRANCH  20  21
ATOM     21  C   UNL     1      47.637   0.453  21.421  1.00  0.00    -0.000 C 
BRANCH  21  22
ATOM     22  C   UNL     1      48.494   1.466  22.204  1.00  0.00    -0.000 C 
BRANCH  22  23
ATOM     23  C   UNL     1      50.014   1.348  21.975  1.00  0.00    -0.000 C 
BRANCH  23  24
ATOM     24  C   UNL     1      50.706   2.712  21.826  1.00  0.00    -0.000 C 
BRANCH  24  25
ATOM     25  C   UNL     1      50.358   3.352  20.475  1.00  0.00    -0.003 C 
ATOM     26  C   UNL     1      51.474   3.140  19.459  1.00  0.00     0.004 C 
ENDBRANCH  24  25
ENDBRANCH  23  24
ENDBRANCH  22  23
ENDBRANCH  21  22
ENDBRANCH  20  21
ENDBRANCH  19  20
ENDBRANCH  18  19
ENDBRANCH  17  18
ENDBRANCH  16  17
ENDBRANCH  15  16
ENDBRANCH   1  15
TORSDOF 22
ENDMDL
MODEL 6
REMARK VINA RESULT:    -4.144      1.839      4.091
REMARK INTER + INTRA:         -13.368
REMARK INTER:                  -9.498
REMARK INTRA:                  -3.870
REMARK UNBOUND:                -3.894
REMARK SMILES CCCCCCCCCCCCCCCCCCCCCCCC(=O)[O-]
REMARK SMILES IDX 13 1 14 2 15 3 16 4 17 5 18 6 19 7 20 8 21 9 22 10 23 11
REMARK SMILES IDX 24 12 25 13 26 14 12 15 11 16 10 17 9 18 8 19 7 20 6 21 5 22
REMARK SMILES IDX 4 23 3 24 2 25 1 26
REMARK H PARENT
REMARK Flexibility Score: inf
ROOT
ATOM      1  C   UNL     1      47.905   3.117  20.649  1.00  0.00     0.000 C 
ENDROOT
BRANCH   1   2
ATOM      2  C   UNL     1      46.568   2.456  20.277  1.00  0.00     0.000 C 
BRANCH   2   3
ATOM      3  C   UNL     1      46.346   1.113  20.991  1.00  0.00     0.000 C 
BRANCH   3   4
ATOM      4  C   UNL     1      47.634   0.278  21.105  1.00  0.00     0.000 C 
BRANCH   4   5
ATOM      5  C   UNL     1      47.588  -0.703  22.288  1.00  0.00     0.000 C 
BRANCH   5   6
ATOM      6  C   UNL     1      48.352  -0.172  23.513  1.00  0.00     0.000 C 
BRANCH   6   7
ATOM      7  C   UNL     1      49.865  -0.449  23.439  1.00  0.00     0.000 C 
BRANCH   7   8
ATOM      8  C   UNL     1      50.751   0.809  23.446  1.00  0.00     0.000 C 
BRANCH   8   9
ATOM      9  C   UNL     1      51.556   0.981  22.145  1.00  0.00     0.000 C 
BRANCH   9  10
ATOM     10  C   UNL     1      51.383   2.378  21.522  1.00  0.00     0.006 C 
BRANCH  10  11
ATOM     11  C   UNL     1      51.307   2.373  19.988  1.00  0.00     0.053 C 
BRANCH  11  12
ATOM     12  C   UNL     1      52.336   3.271  19.374  1.00  0.00     0.041 C 
ATOM     13  O   UNL     1      51.990   4.185  18.580  1.00  0.00    -0.550 OA
ATOM     14  O   UNL     1      53.683   3.077  19.657  1.00  0.00    -0.550 OA
ENDBRANCH  11  12
ENDBRANCH  10  11
ENDBRANCH   9  10
ENDBRANCH   8   9
ENDBRANCH   7   8
ENDBRANCH   6   7
ENDBRANCH   5   6
ENDBRANCH   4   5
ENDBRANCH   3   4
ENDBRANCH   2   3
ENDBRANCH   1   2
BRANCH   1  15
ATOM     15  C   UNL     1      47.775   4.094  21.831  1.00  0.00     0.000 C 
BRANCH  15  16
ATOM     16  C   UNL     1      48.267   3.514  23.174  1.00  0.00     0.000 C 
BRANCH  16  17
ATOM     17  C   UNL     1      47.107   3.243  24.149  1.00  0.00     0.000 C 
BRANCH  17  18
ATOM     18  C   UNL     1      47.508   3.456  25.618  1.00  0.00    -0.000 C 
BRANCH  18  19
ATOM     19  C   UNL     1      49.034   3.466  25.817  1.00  0.00    -0.000 C 
BRANCH  19  20
ATOM     20  C   UNL     1      49.475   4.364  26.993  1.00  0.00    -0.000 C 
BRANCH  20  21
ATOM     21  C   UNL     1      50.196   5.656  26.560  1.00  0.00    -0.000 C 
BRANCH  21  22
ATOM     22  C   UNL     1      50.125   5.977  25.054  1.00  0.00    -0.000 C 
BRANCH  22  23
ATOM     23  C   UNL     1      49.103   7.064  24.668  1.00  0.00    -0.000 C 
BRANCH  23  24
ATOM     24  C   UNL     1      49.604   7.986  23.546  1.00  0.00    -0.000 C 
BRANCH  24  25
ATOM     25  C   UNL     1      48.822   7.740  22.250  1.00  0.00    -0.003 C 
ATOM     26  C   UNL     1      49.723   7.168  21.161  1.00  0.00     0.004 C 
ENDBRANCH  24  25
ENDBRANCH  23  24
ENDBRANCH  22  23
ENDBRANCH  21  22
ENDBRANCH  20  21
ENDBRANCH  19  20
ENDBRANCH  18  19
ENDBRANCH  17  18
ENDBRANCH  16  17
ENDBRANCH  15  16
ENDBRANCH   1  15
TORSDOF 22
ENDMDL
MODEL 7
REMARK VINA RESULT:    -4.116      1.824      6.124
REMARK INTER + INTRA:         -13.303
REMARK INTER:                  -9.443
REMARK INTRA:                  -3.860
REMARK UNBOUND:                -3.894
REMARK SMILES CCCCCCCCCCCCCCCCCCCCCCCC(=O)[O-]
REMARK SMILES IDX 13 1 14 2 15 3 16 4 17 5 18 6 19 7 20 8 21 9 22 10 23 11
REMARK SMILES IDX 24 12 25 13 26 14 12 15 11 16 10 17 9 18 8 19 7 20 6 21 5 22
REMARK SMILES IDX 4 23 3 24 2 25 1 26
REMARK H PARENT
REMARK Flexibility Score: inf
ROOT
ATOM      1  C   UNL     1      48.570   6.004  25.616  1.00  0.00     0.000 C 
ENDROOT
BRANCH   1   2
ATOM      2  C   UNL     1      50.060   6.121  25.258  1.00  0.00     0.000 C 
BRANCH   2   3
ATOM      3  C   UNL     1      50.383   7.385  24.446  1.00  0.00     0.000 C 
BRANCH   3   4
ATOM      4  C   UNL     1      49.178   8.335  24.317  1.00  0.00     0.000 C 
BRANCH   4   5
ATOM      5  C   UNL     1      48.638   8.396  22.879  1.00  0.00     0.000 C 
BRANCH   5   6
ATOM      6  C   UNL     1      49.617   7.782  21.864  1.00  0.00     0.000 C 
BRANCH   6   7
ATOM      7  C   UNL     1      48.984   6.652  21.033  1.00  0.00     0.000 C 
BRANCH   7   8
ATOM      8  C   UNL     1      48.223   5.596  21.856  1.00  0.00     0.000 C 
BRANCH   8   9
ATOM      9  C   UNL     1      48.500   4.157  21.386  1.00  0.00     0.000 C 
BRANCH   9  10
ATOM     10  C   UNL     1      49.996   3.797  21.432  1.00  0.00     0.006 C 
BRANCH  10  11
ATOM     11  C   UNL     1      50.400   2.679  20.459  1.00  0.00     0.053 C 
BRANCH  11  12
ATOM     12  C   UNL     1      51.445   3.132  19.489  1.00  0.00     0.041 C 
ATOM     13  O   UNL     1      51.433   4.311  19.045  1.00  0.00    -0.550 OA
ATOM     14  O   UNL     1      52.418   2.241  19.049  1.00  0.00    -0.550 OA
ENDBRANCH  11  12
ENDBRANCH  10  11
ENDBRANCH   9  10
ENDBRANCH   8   9
ENDBRANCH   7   8
ENDBRANCH   6   7
ENDBRANCH   5   6
ENDBRANCH   4   5
ENDBRANCH   3   4
ENDBRANCH   2   3
ENDBRANCH   1   2
BRANCH   1  15
ATOM     15  C   UNL     1      48.012   4.590  25.375  1.00  0.00     0.000 C 
BRANCH  15  16
ATOM     16  C   UNL     1      49.090   3.486  25.386  1.00  0.00     0.000 C 
BRANCH  16  17
ATOM     17  C   UNL     1      48.576   2.166  24.783  1.00  0.00     0.000 C 
BRANCH  17  18
ATOM     18  C   UNL     1      49.703   1.314  24.176  1.00  0.00    -0.000 C 
BRANCH  18  19
ATOM     19  C   UNL     1      49.208  -0.059  23.691  1.00  0.00    -0.000 C 
BRANCH  19  20
ATOM     20  C   UNL     1      49.123  -0.151  22.152  1.00  0.00    -0.000 C 
BRANCH  20  21
ATOM     21  C   UNL     1      47.696  -0.376  21.615  1.00  0.00    -0.000 C 
BRANCH  21  22
ATOM     22  C   UNL     1      47.140   0.755  20.728  1.00  0.00    -0.000 C 
BRANCH  22  23
ATOM     23  C   UNL     1      46.026   1.602  21.376  1.00  0.00    -0.000 C 
BRANCH  23  24
ATOM     24  C   UNL     1      45.537   1.027  22.714  1.00  0.00    -0.000 C 
BRANCH  24  25
ATOM     25  C   UNL     1      44.315   0.123  22.501  1.00  0.00    -0.003 C 
ATOM     26  C   UNL     1      43.254   0.818  21.655  1.00  0.00     0.004 C 
ENDBRANCH  24  25
ENDBRANCH  23  24
ENDBRANCH  22  23
ENDBRANCH  21  22
ENDBRANCH  20  21
ENDBRANCH  19  20
ENDBRANCH  18  19
ENDBRANCH  17  18
ENDBRANCH  16  17
ENDBRANCH  15  16
ENDBRANCH   1  15
TORSDOF 22
ENDMDL
MODEL 8
REMARK VINA RESULT:    -4.097      1.922      4.131
REMARK INTER + INTRA:         -13.261
REMARK INTER:                  -9.012
REMARK INTRA:                  -4.250
REMARK UNBOUND:                -3.894
REMARK SMILES CCCCCCCCCCCCCCCCCCCCCCCC(=O)[O-]
REMARK SMILES IDX 13 1 14 2 15 3 16 4 17 5 18 6 19 7 20 8 21 9 22 10 23 11
REMARK SMILES IDX 24 12 25 13 26 14 12 15 11 16 10 17 9 18 8 19 7 20 6 21 5 22
REMARK SMILES IDX 4 23 3 24 2 25 1 26
REMARK H PARENT
REMARK Flexibility Score: inf
ROOT
ATOM      1  C   UNL     1      45.808   4.125  20.602  1.00  0.00     0.000 C 
ENDROOT
BRANCH   1   2
ATOM      2  C   UNL     1      44.944   2.855  20.660  1.00  0.00     0.000 C 
BRANCH   2   3
ATOM      3  C   UNL     1      44.834   2.271  22.077  1.00  0.00     0.000 C 
BRANCH   3   4
ATOM      4  C   UNL     1      44.973   0.738  22.104  1.00  0.00     0.000 C 
BRANCH   4   5
ATOM      5  C   UNL     1      46.314   0.287  22.706  1.00  0.00     0.000 C 
BRANCH   5   6
ATOM      6  C   UNL     1      47.012   1.417  23.481  1.00  0.00     0.000 C 
BRANCH   6   7
ATOM      7  C   UNL     1      48.493   1.581  23.092  1.00  0.00     0.000 C 
BRANCH   7   8
ATOM      8  C   UNL     1      48.840   1.112  21.667  1.00  0.00     0.000 C 
BRANCH   8   9
ATOM      9  C   UNL     1      48.844   2.262  20.644  1.00  0.00     0.000 C 
BRANCH   9  10
ATOM     10  C   UNL     1      50.075   3.174  20.783  1.00  0.00     0.006 C 
BRANCH  10  11
ATOM     11  C   UNL     1      51.239   2.799  19.854  1.00  0.00     0.053 C 
BRANCH  11  12
ATOM     12  C   UNL     1      52.436   2.326  20.619  1.00  0.00     0.041 C 
ATOM     13  O   UNL     1      52.297   1.791  21.750  1.00  0.00    -0.550 OA
ATOM     14  O   UNL     1      53.711   2.507  20.095  1.00  0.00    -0.550 OA
ENDBRANCH  11  12
ENDBRANCH  10  11
ENDBRANCH   9  10
ENDBRANCH   8   9
ENDBRANCH   7   8
ENDBRANCH   6   7
ENDBRANCH   5   6
ENDBRANCH   4   5
ENDBRANCH   3   4
ENDBRANCH   2   3
ENDBRANCH   1   2
BRANCH   1  15
ATOM     15  C   UNL     1      45.847   4.878  21.943  1.00  0.00     0.000 C 
BRANCH  15  16
ATOM     16  C   UNL     1      47.268   5.049  22.519  1.00  0.00     0.000 C 
BRANCH  16  17
ATOM     17  C   UNL     1      47.270   5.095  24.057  1.00  0.00     0.000 C 
BRANCH  17  18
ATOM     18  C   UNL     1      48.681   4.950  24.652  1.00  0.00    -0.000 C 
BRANCH  18  19
ATOM     19  C   UNL     1      49.763   5.586  23.763  1.00  0.00    -0.000 C 
BRANCH  19  20
ATOM     20  C   UNL     1      49.904   7.107  23.993  1.00  0.00    -0.000 C 
BRANCH  20  21
ATOM     21  C   UNL     1      49.578   7.962  22.752  1.00  0.00    -0.000 C 
BRANCH  21  22
ATOM     22  C   UNL     1      49.758   7.251  21.397  1.00  0.00    -0.000 C 
BRANCH  22  23
ATOM     23  C   UNL     1      49.406   8.105  20.163  1.00  0.00    -0.000 C 
BRANCH  23  24
ATOM     24  C   UNL     1      48.148   8.963  20.366  1.00  0.00    -0.000 C 
BRANCH  24  25
ATOM     25  C   UNL     1      46.882   8.103  20.262  1.00  0.00    -0.003 C 
ATOM     26  C   UNL     1      45.764   8.658  21.137  1.00  0.00     0.004 C 
ENDBRANCH  24  25
ENDBRANCH  23  24
ENDBRANCH  22  23
ENDBRANCH  21  22
ENDBRANCH  20  21
ENDBRANCH  19  20
ENDBRANCH  18  19
ENDBRANCH  17  18
ENDBRANCH  16  17
ENDBRANCH  15  16
ENDBRANCH   1  15
TORSDOF 22
ENDMDL
MODEL 9
REMARK VINA RESULT:    -4.077      2.345      6.065
REMARK INTER + INTRA:         -13.214
REMARK INTER:                  -8.734
REMARK INTRA:                  -4.480
REMARK UNBOUND:                -3.894
REMARK SMILES CCCCCCCCCCCCCCCCCCCCCCCC(=O)[O-]
REMARK SMILES IDX 13 1 14 2 15 3 16 4 17 5 18 6 19 7 20 8 21 9 22 10 23 11
REMARK SMILES IDX 24 12 25 13 26 14 12 15 11 16 10 17 9 18 8 19 7 20 6 21 5 22
REMARK SMILES IDX 4 23 3 24 2 25 1 26
REMARK H PARENT
REMARK Flexibility Score: inf
ROOT
ATOM      1  C   UNL     1      50.231   5.998  26.770  1.00  0.00     0.000 C 
ENDROOT
BRANCH   1   2
ATOM      2  C   UNL     1      49.892   6.102  25.275  1.00  0.00     0.000 C 
BRANCH   2   3
ATOM      3  C   UNL     1      50.290   7.455  24.664  1.00  0.00     0.000 C 
BRANCH   3   4
ATOM      4  C   UNL     1      49.210   8.028  23.728  1.00  0.00     0.000 C 
BRANCH   4   5
ATOM      5  C   UNL     1      48.393   9.144  24.398  1.00  0.00     0.000 C 
BRANCH   5   6
ATOM      6  C   UNL     1      47.751  10.091  23.369  1.00  0.00     0.000 C 
BRANCH   6   7
ATOM      7  C   UNL     1      46.241   9.844  23.192  1.00  0.00     0.000 C 
BRANCH   7   8
ATOM      8  C   UNL     1      45.820   9.429  21.771  1.00  0.00     0.000 C 
BRANCH   8   9
ATOM      9  C   UNL     1      46.517   8.144  21.291  1.00  0.00     0.000 C 
BRANCH   9  10
ATOM     10  C   UNL     1      47.117   8.286  19.881  1.00  0.00     0.006 C 
BRANCH  10  11
ATOM     11  C   UNL     1      48.329   9.227  19.810  1.00  0.00     0.053 C 
BRANCH  11  12
ATOM     12  C   UNL     1      49.576   8.504  19.405  1.00  0.00     0.041 C 
ATOM     13  O   UNL     1      50.275   7.910  20.267  1.00  0.00    -0.550 OA
ATOM     14  O   UNL     1      49.982   8.514  18.075  1.00  0.00    -0.550 OA
ENDBRANCH  11  12
ENDBRANCH  10  11
ENDBRANCH   9  10
ENDBRANCH   8   9
ENDBRANCH   7   8
ENDBRANCH   6   7
ENDBRANCH   5   6
ENDBRANCH   4   5
ENDBRANCH   3   4
ENDBRANCH   2   3
ENDBRANCH   1   2
BRANCH   1  15
ATOM     15  C   UNL     1      48.986   6.092  27.669  1.00  0.00     0.000 C 
BRANCH  15  16
ATOM     16  C   UNL     1      48.657   7.530  28.125  1.00  0.00     0.000 C 
BRANCH  16  17
ATOM     17  C   UNL     1      47.150   7.836  28.038  1.00  0.00     0.000 C 
BRANCH  17  18
ATOM     18  C   UNL     1      46.380   6.785  27.221  1.00  0.00    -0.000 C 
BRANCH  18  19
ATOM     19  C   UNL     1      45.765   7.371  25.938  1.00  0.00    -0.000 C 
BRANCH  19  20
ATOM     20  C   UNL     1      45.800   6.380  24.755  1.00  0.00    -0.000 C 
BRANCH  20  21
ATOM     21  C   UNL     1      46.462   5.028  25.088  1.00  0.00    -0.000 C 
BRANCH  21  22
ATOM     22  C   UNL     1      46.710   4.101  23.883  1.00  0.00    -0.000 C 
BRANCH  22  23
ATOM     23  C   UNL     1      46.218   4.648  22.528  1.00  0.00    -0.000 C 
BRANCH  23  24
ATOM     24  C   UNL     1      47.211   4.395  21.383  1.00  0.00    -0.000 C 
BRANCH  24  25
ATOM     25  C   UNL     1      48.550   5.091  21.662  1.00  0.00    -0.003 C 
ATOM     26  C   UNL     1      49.600   4.096  22.144  1.00  0.00     0.004 C 
ENDBRANCH  24  25
ENDBRANCH  23  24
ENDBRANCH  22  23
ENDBRANCH  21  22
ENDBRANCH  20  21
ENDBRANCH  19  20
ENDBRANCH  18  19
ENDBRANCH  17  18
ENDBRANCH  16  17
ENDBRANCH  15  16
ENDBRANCH   1  15
TORSDOF 22
ENDMDL
