MODEL 1
REMARK VINA RESULT:    -4.492      0.000      0.000
REMARK INTER + INTRA:         -13.308
REMARK INTER:                  -9.745
REMARK INTRA:                  -3.564
REMARK UNBOUND:                -3.564
REMARK SMILES CCCCCCCCCCCCCCCCCCCCCC(=O)[O-]
REMARK SMILES IDX 12 1 11 2 10 3 9 4 8 5 7 6 6 7 5 8 4 9 3 10 2 11 1 12 13 13
REMARK SMILES IDX 14 14 15 15 16 16 17 17 18 18 19 19 20 20 21 21 22 22 23 23
REMARK SMILES IDX 24 24
REMARK H PARENT
REMARK Flexibility Score: inf
ROOT
ATOM      1  C   UNL     1       8.461  -7.564  27.512  1.00  0.00     0.000 C 
ENDROOT
BRANCH   1   2
ATOM      2  C   UNL     1       8.982  -9.006  27.399  1.00  0.00     0.000 C 
BRANCH   2   3
ATOM      3  C   UNL     1       7.845 -10.039  27.289  1.00  0.00     0.000 C 
BRANCH   3   4
ATOM      4  C   UNL     1       6.801  -9.651  26.220  1.00  0.00    -0.000 C 
BRANCH   4   5
ATOM      5  C   UNL     1       5.342  -9.882  26.661  1.00  0.00    -0.000 C 
BRANCH   5   6
ATOM      6  C   UNL     1       5.153 -10.118  28.167  1.00  0.00    -0.000 C 
BRANCH   6   7
ATOM      7  C   UNL     1       4.031  -9.252  28.768  1.00  0.00    -0.000 C 
BRANCH   7   8
ATOM      8  C   UNL     1       4.421  -8.636  30.120  1.00  0.00    -0.000 C 
BRANCH   8   9
ATOM      9  C   UNL     1       5.884  -8.164  30.159  1.00  0.00    -0.000 C 
BRANCH   9  10
ATOM     10  C   UNL     1       6.264  -7.563  31.529  1.00  0.00    -0.000 C 
BRANCH  10  11
ATOM     11  C   UNL     1       5.922  -6.070  31.660  1.00  0.00    -0.003 C 
ATOM     12  C   UNL     1       6.903  -5.305  32.546  1.00  0.00     0.004 C 
ENDBRANCH  10  11
ENDBRANCH   9  10
ENDBRANCH   8   9
ENDBRANCH   7   8
ENDBRANCH   6   7
ENDBRANCH   5   6
ENDBRANCH   4   5
ENDBRANCH   3   4
ENDBRANCH   2   3
ENDBRANCH   1   2
BRANCH   1  13
ATOM     13  C   UNL     1       9.047  -6.817  28.718  1.00  0.00     0.000 C 
BRANCH  13  14
ATOM     14  C   UNL     1       8.230  -5.555  29.026  1.00  0.00     0.000 C 
BRANCH  14  15
ATOM     15  C   UNL     1       8.154  -4.630  27.805  1.00  0.00     0.000 C 
BRANCH  15  16
ATOM     16  C   UNL     1       6.713  -4.221  27.451  1.00  0.00     0.000 C 
BRANCH  16  17
ATOM     17  C   UNL     1       5.643  -5.220  27.940  1.00  0.00     0.000 C 
BRANCH  17  18
ATOM     18  C   UNL     1       5.208  -6.200  26.835  1.00  0.00     0.000 C 
BRANCH  18  19
ATOM     19  C   UNL     1       5.827  -5.862  25.469  1.00  0.00     0.000 C 
BRANCH  19  20
ATOM     20  C   UNL     1       4.777  -5.770  24.352  1.00  0.00     0.006 C 
BRANCH  20  21
ATOM     21  C   UNL     1       4.952  -6.908  23.341  1.00  0.00     0.053 C 
BRANCH  21  22
ATOM     22  C   UNL     1       5.069  -6.363  21.952  1.00  0.00     0.041 C 
ATOM     23  O   UNL     1       6.195  -6.037  21.491  1.00  0.00    -0.550 OA
ATOM     24  O   UNL     1       3.928  -6.172  21.181  1.00  0.00    -0.550 OA
ENDBRANCH  21  22
ENDBRANCH  20  21
ENDBRANCH  19  20
ENDBRANCH  18  19
ENDBRANCH  17  18
ENDBRANCH  16  17
ENDBRANCH  15  16
ENDBRANCH  14  15
ENDBRANCH  13  14
ENDBRANCH   1  13
TORSDOF 20
ENDMDL
MODEL 2
REMARK VINA RESULT:    -4.462     10.645     14.157
REMARK INTER + INTRA:         -13.243
REMARK INTER:                 -10.557
REMARK INTRA:                  -2.686
REMARK UNBOUND:                -3.564
REMARK SMILES CCCCCCCCCCCCCCCCCCCCCC(=O)[O-]
REMARK SMILES IDX 12 1 11 2 10 3 9 4 8 5 7 6 6 7 5 8 4 9 3 10 2 11 1 12 13 13
REMARK SMILES IDX 14 14 15 15 16 16 17 17 18 18 19 19 20 20 21 21 22 22 23 23
REMARK SMILES IDX 24 24
REMARK H PARENT
REMARK Flexibility Score: inf
ROOT
ATOM      1  C   UNL     1      14.373  -6.460  17.031  1.00  0.00     0.000 C 
ENDROOT
BRANCH   1   2
ATOM      2  C   UNL     1      12.859  -6.243  17.175  1.00  0.00     0.000 C 
BRANCH   2   3
ATOM      3  C   UNL     1      12.066  -7.563  17.142  1.00  0.00     0.000 C 
BRANCH   3   4
ATOM      4  C   UNL     1      12.372  -8.461  18.360  1.00  0.00    -0.000 C 
BRANCH   4   5
ATOM      5  C   UNL     1      12.879  -9.867  17.987  1.00  0.00    -0.000 C 
BRANCH   5   6
ATOM      6  C   UNL     1      14.275  -9.901  17.346  1.00  0.00    -0.000 C 
BRANCH   6   7
ATOM      7  C   UNL     1      14.225 -10.123  15.823  1.00  0.00    -0.000 C 
BRANCH   7   8
ATOM      8  C   UNL     1      15.518  -9.685  15.120  1.00  0.00    -0.000 C 
BRANCH   8   9
ATOM      9  C   UNL     1      15.266  -9.095  13.722  1.00  0.00    -0.000 C 
BRANCH   9  10
ATOM     10  C   UNL     1      15.520  -7.573  13.679  1.00  0.00    -0.000 C 
BRANCH  10  11
ATOM     11  C   UNL     1      14.381  -6.779  13.020  1.00  0.00    -0.003 C 
ATOM     12  C   UNL     1      13.008  -7.100  13.606  1.00  0.00     0.004 C 
ENDBRANCH  10  11
ENDBRANCH   9  10
ENDBRANCH   8   9
ENDBRANCH   7   8
ENDBRANCH   6   7
ENDBRANCH   5   6
ENDBRANCH   4   5
ENDBRANCH   3   4
ENDBRANCH   2   3
ENDBRANCH   1   2
BRANCH   1  13
ATOM     13  C   UNL     1      15.134  -6.201  18.339  1.00  0.00     0.000 C 
BRANCH  13  14
ATOM     14  C   UNL     1      14.403  -5.162  19.198  1.00  0.00     0.000 C 
BRANCH  14  15
ATOM     15  C   UNL     1      14.349  -5.596  20.669  1.00  0.00     0.000 C 
BRANCH  15  16
ATOM     16  C   UNL     1      15.232  -6.820  20.966  1.00  0.00     0.000 C 
BRANCH  16  17
ATOM     17  C   UNL     1      14.629  -7.787  22.008  1.00  0.00     0.000 C 
BRANCH  17  18
ATOM     18  C   UNL     1      15.008  -7.404  23.450  1.00  0.00     0.000 C 
BRANCH  18  19
ATOM     19  C   UNL     1      15.632  -8.574  24.227  1.00  0.00     0.000 C 
BRANCH  19  20
ATOM     20  C   UNL     1      17.017  -8.966  23.692  1.00  0.00     0.006 C 
BRANCH  20  21
ATOM     21  C   UNL     1      17.946  -7.748  23.634  1.00  0.00     0.053 C 
BRANCH  21  22
ATOM     22  C   UNL     1      18.984  -7.930  22.571  1.00  0.00     0.041 C 
ATOM     23  O   UNL     1      19.619  -6.936  22.129  1.00  0.00    -0.550 OA
ATOM     24  O   UNL     1      19.220  -9.191  22.037  1.00  0.00    -0.550 OA
ENDBRANCH  21  22
ENDBRANCH  20  21
ENDBRANCH  19  20
ENDBRANCH  18  19
ENDBRANCH  17  18
ENDBRANCH  16  17
ENDBRANCH  15  16
ENDBRANCH  14  15
ENDBRANCH  13  14
ENDBRANCH   1  13
TORSDOF 20
ENDMDL
MODEL 3
REMARK VINA RESULT:    -4.437      3.366      7.074
REMARK INTER + INTRA:         -13.188
REMARK INTER:                  -9.601
REMARK INTRA:                  -3.587
REMARK UNBOUND:                -3.564
REMARK SMILES CCCCCCCCCCCCCCCCCCCCCC(=O)[O-]
REMARK SMILES IDX 12 1 11 2 10 3 9 4 8 5 7 6 6 7 5 8 4 9 3 10 2 11 1 12 13 13
REMARK SMILES IDX 14 14 15 15 16 16 17 17 18 18 19 19 20 20 21 21 22 22 23 23
REMARK SMILES IDX 24 24
REMARK H PARENT
REMARK Flexibility Score: inf
ROOT
ATOM      1  C   UNL     1       7.898  -4.608  28.218  1.00  0.00     0.000 C 
ENDROOT
BRANCH   1   2
ATOM      2  C   UNL     1       6.543  -5.262  28.532  1.00  0.00     0.000 C 
BRANCH   2   3
ATOM      3  C   UNL     1       5.570  -5.208  27.340  1.00  0.00     0.000 C 
BRANCH   3   4
ATOM      4  C   UNL     1       6.303  -5.056  25.990  1.00  0.00    -0.000 C 
BRANCH   4   5
ATOM      5  C   UNL     1       6.000  -6.184  24.984  1.00  0.00    -0.000 C 
BRANCH   5   6
ATOM      6  C   UNL     1       4.666  -6.912  25.215  1.00  0.00    -0.000 C 
BRANCH   6   7
ATOM      7  C   UNL     1       3.739  -6.856  23.987  1.00  0.00    -0.000 C 
BRANCH   7   8
ATOM      8  C   UNL     1       4.177  -5.797  22.964  1.00  0.00    -0.000 C 
BRANCH   8   9
ATOM      9  C   UNL     1       4.021  -6.274  21.511  1.00  0.00    -0.000 C 
BRANCH   9  10
ATOM     10  C   UNL     1       4.163  -7.806  21.383  1.00  0.00    -0.000 C 
BRANCH  10  11
ATOM     11  C   UNL     1       5.541  -8.253  20.870  1.00  0.00    -0.003 C 
ATOM     12  C   UNL     1       6.467  -8.737  21.983  1.00  0.00     0.004 C 
ENDBRANCH  10  11
ENDBRANCH   9  10
ENDBRANCH   8   9
ENDBRANCH   7   8
ENDBRANCH   6   7
ENDBRANCH   5   6
ENDBRANCH   4   5
ENDBRANCH   3   4
ENDBRANCH   2   3
ENDBRANCH   1   2
BRANCH   1  13
ATOM     13  C   UNL     1       9.066  -5.601  28.295  1.00  0.00     0.000 C 
BRANCH  13  14
ATOM     14  C   UNL     1       8.567  -7.000  28.676  1.00  0.00     0.000 C 
BRANCH  14  15
ATOM     15  C   UNL     1       8.812  -8.006  27.544  1.00  0.00     0.000 C 
BRANCH  15  16
ATOM     16  C   UNL     1       7.517  -8.656  27.027  1.00  0.00     0.000 C 
BRANCH  16  17
ATOM     17  C   UNL     1       6.726  -9.419  28.111  1.00  0.00     0.000 C 
BRANCH  17  18
ATOM     18  C   UNL     1       5.330  -8.815  28.351  1.00  0.00     0.000 C 
BRANCH  18  19
ATOM     19  C   UNL     1       4.848  -9.001  29.799  1.00  0.00     0.000 C 
BRANCH  19  20
ATOM     20  C   UNL     1       4.964  -7.715  30.630  1.00  0.00     0.006 C 
BRANCH  20  21
ATOM     21  C   UNL     1       6.293  -7.675  31.393  1.00  0.00     0.053 C 
BRANCH  21  22
ATOM     22  C   UNL     1       6.495  -6.332  32.023  1.00  0.00     0.041 C 
ATOM     23  O   UNL     1       5.549  -5.769  32.634  1.00  0.00    -0.550 OA
ATOM     24  O   UNL     1       7.717  -5.682  31.898  1.00  0.00    -0.550 OA
ENDBRANCH  21  22
ENDBRANCH  20  21
ENDBRANCH  19  20
ENDBRANCH  18  19
ENDBRANCH  17  18
ENDBRANCH  16  17
ENDBRANCH  15  16
ENDBRANCH  14  15
ENDBRANCH  13  14
ENDBRANCH   1  13
TORSDOF 20
ENDMDL
MODEL 4
REMARK VINA RESULT:    -4.293      3.693      7.179
REMARK INTER + INTRA:         -12.877
REMARK INTER:                  -9.593
REMARK INTRA:                  -3.283
REMARK UNBOUND:                -3.564
REMARK SMILES CCCCCCCCCCCCCCCCCCCCCC(=O)[O-]
REMARK SMILES IDX 12 1 11 2 10 3 9 4 8 5 7 6 6 7 5 8 4 9 3 10 2 11 1 12 13 13
REMARK SMILES IDX 14 14 15 15 16 16 17 17 18 18 19 19 20 20 21 21 22 22 23 23
REMARK SMILES IDX 24 24
REMARK H PARENT
REMARK Flexibility Score: inf
ROOT
ATOM      1  C   UNL     1       6.435  -4.882  25.378  1.00  0.00     0.000 C 
ENDROOT
BRANCH   1   2
ATOM      2  C   UNL     1       5.315  -5.720  26.013  1.00  0.00     0.000 C 
BRANCH   2   3
ATOM      3  C   UNL     1       5.166  -7.104  25.355  1.00  0.00     0.000 C 
BRANCH   3   4
ATOM      4  C   UNL     1       6.375  -7.463  24.464  1.00  0.00    -0.000 C 
BRANCH   4   5
ATOM      5  C   UNL     1       6.799  -8.942  24.554  1.00  0.00    -0.000 C 
BRANCH   5   6
ATOM      6  C   UNL     1       7.784  -9.398  23.466  1.00  0.00    -0.000 C 
BRANCH   6   7
ATOM      7  C   UNL     1       7.517  -8.729  22.105  1.00  0.00    -0.000 C 
BRANCH   7   8
ATOM      8  C   UNL     1       6.865  -9.686  21.095  1.00  0.00    -0.000 C 
BRANCH   8   9
ATOM      9  C   UNL     1       5.496  -9.190  20.603  1.00  0.00    -0.000 C 
BRANCH   9  10
ATOM     10  C   UNL     1       5.266  -7.699  20.931  1.00  0.00    -0.000 C 
BRANCH  10  11
ATOM     11  C   UNL     1       3.919  -7.422  21.617  1.00  0.00    -0.003 C 
ATOM     12  C   UNL     1       3.753  -5.967  22.048  1.00  0.00     0.004 C 
ENDBRANCH  10  11
ENDBRANCH   9  10
ENDBRANCH   8   9
ENDBRANCH   7   8
ENDBRANCH   6   7
ENDBRANCH   5   6
ENDBRANCH   4   5
ENDBRANCH   3   4
ENDBRANCH   2   3
ENDBRANCH   1   2
BRANCH   1  13
ATOM     13  C   UNL     1       7.123  -3.952  26.387  1.00  0.00     0.000 C 
BRANCH  13  14
ATOM     14  C   UNL     1       7.157  -4.590  27.781  1.00  0.00     0.000 C 
BRANCH  14  15
ATOM     15  C   UNL     1       8.584  -4.993  28.175  1.00  0.00     0.000 C 
BRANCH  15  16
ATOM     16  C   UNL     1       8.674  -6.429  28.720  1.00  0.00     0.000 C 
BRANCH  16  17
ATOM     17  C   UNL     1       8.087  -7.495  27.771  1.00  0.00     0.000 C 
BRANCH  17  18
ATOM     18  C   UNL     1       7.126  -8.456  28.494  1.00  0.00     0.000 C 
BRANCH  18  19
ATOM     19  C   UNL     1       5.832  -7.765  28.951  1.00  0.00     0.000 C 
BRANCH  19  20
ATOM     20  C   UNL     1       5.385  -8.215  30.350  1.00  0.00     0.006 C 
BRANCH  20  21
ATOM     21  C   UNL     1       6.209  -7.519  31.438  1.00  0.00     0.053 C 
BRANCH  21  22
ATOM     22  C   UNL     1       5.330  -6.664  32.297  1.00  0.00     0.041 C 
ATOM     23  O   UNL     1       4.301  -7.153  32.835  1.00  0.00    -0.550 OA
ATOM     24  O   UNL     1       5.622  -5.316  32.467  1.00  0.00    -0.550 OA
ENDBRANCH  21  22
ENDBRANCH  20  21
ENDBRANCH  19  20
ENDBRANCH  18  19
ENDBRANCH  17  18
ENDBRANCH  16  17
ENDBRANCH  15  16
ENDBRANCH  14  15
ENDBRANCH  13  14
ENDBRANCH   1  13
TORSDOF 20
ENDMDL
MODEL 5
REMARK VINA RESULT:    -4.272      1.736      3.211
REMARK INTER + INTRA:         -12.831
REMARK INTER:                  -9.607
REMARK INTRA:                  -3.223
REMARK UNBOUND:                -3.564
REMARK SMILES CCCCCCCCCCCCCCCCCCCCCC(=O)[O-]
REMARK SMILES IDX 12 1 11 2 10 3 9 4 8 5 7 6 6 7 5 8 4 9 3 10 2 11 1 12 13 13
REMARK SMILES IDX 14 14 15 15 16 16 17 17 18 18 19 19 20 20 21 21 22 22 23 23
REMARK SMILES IDX 24 24
REMARK H PARENT
REMARK Flexibility Score: inf
ROOT
ATOM      1  C   UNL     1       8.115  -4.819  27.389  1.00  0.00     0.000 C 
ENDROOT
BRANCH   1   2
ATOM      2  C   UNL     1       8.253  -5.477  28.772  1.00  0.00     0.000 C 
BRANCH   2   3
ATOM      3  C   UNL     1       8.939  -6.853  28.706  1.00  0.00     0.000 C 
BRANCH   3   4
ATOM      4  C   UNL     1       8.517  -7.661  27.460  1.00  0.00    -0.000 C 
BRANCH   4   5
ATOM      5  C   UNL     1       7.851  -9.012  27.788  1.00  0.00    -0.000 C 
BRANCH   5   6
ATOM      6  C   UNL     1       6.315  -8.995  27.765  1.00  0.00    -0.000 C 
BRANCH   6   7
ATOM      7  C   UNL     1       5.695  -9.748  28.956  1.00  0.00    -0.000 C 
BRANCH   7   8
ATOM      8  C   UNL     1       4.766  -8.860  29.797  1.00  0.00    -0.000 C 
BRANCH   8   9
ATOM      9  C   UNL     1       5.408  -7.512  30.169  1.00  0.00    -0.000 C 
BRANCH   9  10
ATOM     10  C   UNL     1       6.418  -7.651  31.328  1.00  0.00    -0.000 C 
BRANCH  10  11
ATOM     11  C   UNL     1       6.783  -6.310  31.986  1.00  0.00    -0.003 C 
ATOM     12  C   UNL     1       5.563  -5.510  32.436  1.00  0.00     0.004 C 
ENDBRANCH  10  11
ENDBRANCH   9  10
ENDBRANCH   8   9
ENDBRANCH   7   8
ENDBRANCH   6   7
ENDBRANCH   5   6
ENDBRANCH   4   5
ENDBRANCH   3   4
ENDBRANCH   2   3
ENDBRANCH   1   2
BRANCH   1  13
ATOM     13  C   UNL     1       6.753  -4.141  27.190  1.00  0.00     0.000 C 
BRANCH  13  14
ATOM     14  C   UNL     1       5.628  -5.183  27.141  1.00  0.00     0.000 C 
BRANCH  14  15
ATOM     15  C   UNL     1       5.709  -6.030  25.865  1.00  0.00     0.000 C 
BRANCH  15  16
ATOM     16  C   UNL     1       5.693  -5.184  24.580  1.00  0.00     0.000 C 
BRANCH  16  17
ATOM     17  C   UNL     1       4.347  -5.221  23.826  1.00  0.00     0.000 C 
BRANCH  17  18
ATOM     18  C   UNL     1       4.415  -6.082  22.551  1.00  0.00     0.000 C 
BRANCH  18  19
ATOM     19  C   UNL     1       5.836  -6.587  22.255  1.00  0.00     0.000 C 
BRANCH  19  20
ATOM     20  C   UNL     1       5.920  -8.120  22.212  1.00  0.00     0.006 C 
BRANCH  20  21
ATOM     21  C   UNL     1       6.513  -8.672  23.513  1.00  0.00     0.053 C 
BRANCH  21  22
ATOM     22  C   UNL     1       7.936  -9.088  23.307  1.00  0.00     0.041 C 
ATOM     23  O   UNL     1       8.664  -9.370  24.295  1.00  0.00    -0.550 OA
ATOM     24  O   UNL     1       8.472  -9.123  22.025  1.00  0.00    -0.550 OA
ENDBRANCH  21  22
ENDBRANCH  20  21
ENDBRANCH  19  20
ENDBRANCH  18  19
ENDBRANCH  17  18
ENDBRANCH  16  17
ENDBRANCH  15  16
ENDBRANCH  14  15
ENDBRANCH  13  14
ENDBRANCH   1  13
TORSDOF 20
ENDMDL
MODEL 6
REMARK VINA RESULT:    -4.241      3.640      7.110
REMARK INTER + INTRA:         -12.763
REMARK INTER:                  -9.835
REMARK INTRA:                  -2.928
REMARK UNBOUND:                -3.564
REMARK SMILES CCCCCCCCCCCCCCCCCCCCCC(=O)[O-]
REMARK SMILES IDX 12 1 11 2 10 3 9 4 8 5 7 6 6 7 5 8 4 9 3 10 2 11 1 12 13 13
REMARK SMILES IDX 14 14 15 15 16 16 17 17 18 18 19 19 20 20 21 21 22 22 23 23
REMARK SMILES IDX 24 24
REMARK H PARENT
REMARK Flexibility Score: inf
ROOT
ATOM      1  C   UNL     1       6.026  -4.591  27.309  1.00  0.00     0.000 C 
ENDROOT
BRANCH   1   2
ATOM      2  C   UNL     1       5.686  -5.622  26.221  1.00  0.00     0.000 C 
BRANCH   2   3
ATOM      3  C   UNL     1       6.009  -5.114  24.804  1.00  0.00     0.000 C 
BRANCH   3   4
ATOM      4  C   UNL     1       4.819  -5.280  23.836  1.00  0.00    -0.000 C 
BRANCH   4   5
ATOM      5  C   UNL     1       4.150  -6.666  23.899  1.00  0.00    -0.000 C 
BRANCH   5   6
ATOM      6  C   UNL     1       3.165  -6.960  22.757  1.00  0.00    -0.000 C 
BRANCH   6   7
ATOM      7  C   UNL     1       3.636  -8.108  21.846  1.00  0.00    -0.000 C 
BRANCH   7   8
ATOM      8  C   UNL     1       4.969  -7.798  21.148  1.00  0.00    -0.000 C 
BRANCH   8   9
ATOM      9  C   UNL     1       5.724  -9.067  20.718  1.00  0.00    -0.000 C 
BRANCH   9  10
ATOM     10  C   UNL     1       6.963  -9.332  21.600  1.00  0.00    -0.000 C 
BRANCH  10  11
ATOM     11  C   UNL     1       7.257  -8.202  22.600  1.00  0.00    -0.003 C 
ATOM     12  C   UNL     1       7.252  -8.669  24.053  1.00  0.00     0.004 C 
ENDBRANCH  10  11
ENDBRANCH   9  10
ENDBRANCH   8   9
ENDBRANCH   7   8
ENDBRANCH   6   7
ENDBRANCH   5   6
ENDBRANCH   4   5
ENDBRANCH   3   4
ENDBRANCH   2   3
ENDBRANCH   1   2
BRANCH   1  13
ATOM     13  C   UNL     1       7.494  -4.659  27.751  1.00  0.00     0.000 C 
BRANCH  13  14
ATOM     14  C   UNL     1       7.611  -5.236  29.167  1.00  0.00     0.000 C 
BRANCH  14  15
ATOM     15  C   UNL     1       8.572  -6.431  29.204  1.00  0.00     0.000 C 
BRANCH  15  16
ATOM     16  C   UNL     1       8.651  -7.179  27.861  1.00  0.00     0.000 C 
BRANCH  16  17
ATOM     17  C   UNL     1       7.974  -8.566  27.878  1.00  0.00     0.000 C 
BRANCH  17  18
ATOM     18  C   UNL     1       6.455  -8.472  28.112  1.00  0.00     0.000 C 
BRANCH  18  19
ATOM     19  C   UNL     1       6.013  -9.173  29.407  1.00  0.00     0.000 C 
BRANCH  19  20
ATOM     20  C   UNL     1       5.189  -8.257  30.322  1.00  0.00     0.006 C 
BRANCH  20  21
ATOM     21  C   UNL     1       6.040  -7.736  31.485  1.00  0.00     0.053 C 
BRANCH  21  22
ATOM     22  C   UNL     1       5.272  -6.736  32.291  1.00  0.00     0.041 C 
ATOM     23  O   UNL     1       5.677  -5.546  32.379  1.00  0.00    -0.550 OA
ATOM     24  O   UNL     1       4.131  -7.127  32.982  1.00  0.00    -0.550 OA
ENDBRANCH  21  22
ENDBRANCH  20  21
ENDBRANCH  19  20
ENDBRANCH  18  19
ENDBRANCH  17  18
ENDBRANCH  16  17
ENDBRANCH  15  16
ENDBRANCH  14  15
ENDBRANCH  13  14
ENDBRANCH   1  13
TORSDOF 20
ENDMDL
MODEL 7
REMARK VINA RESULT:    -4.235      1.930      4.476
REMARK INTER + INTRA:         -12.751
REMARK INTER:                  -9.617
REMARK INTRA:                  -3.134
REMARK UNBOUND:                -3.564
REMARK SMILES CCCCCCCCCCCCCCCCCCCCCC(=O)[O-]
REMARK SMILES IDX 12 1 11 2 10 3 9 4 8 5 7 6 6 7 5 8 4 9 3 10 2 11 1 12 13 13
REMARK SMILES IDX 14 14 15 15 16 16 17 17 18 18 19 19 20 20 21 21 22 22 23 23
REMARK SMILES IDX 24 24
REMARK H PARENT
REMARK Flexibility Score: inf
ROOT
ATOM      1  C   UNL     1       5.583  -9.314  26.575  1.00  0.00     0.000 C 
ENDROOT
BRANCH   1   2
ATOM      2  C   UNL     1       6.725  -9.232  27.601  1.00  0.00     0.000 C 
BRANCH   2   3
ATOM      3  C   UNL     1       6.300  -9.721  28.998  1.00  0.00     0.000 C 
BRANCH   3   4
ATOM      4  C   UNL     1       4.846  -9.330  29.340  1.00  0.00    -0.000 C 
BRANCH   4   5
ATOM      5  C   UNL     1       4.732  -8.164  30.340  1.00  0.00    -0.000 C 
BRANCH   5   6
ATOM      6  C   UNL     1       5.994  -7.906  31.178  1.00  0.00    -0.000 C 
BRANCH   6   7
ATOM      7  C   UNL     1       6.091  -6.452  31.675  1.00  0.00    -0.000 C 
BRANCH   7   8
ATOM      8  C   UNL     1       7.332  -5.725  31.136  1.00  0.00    -0.000 C 
BRANCH   8   9
ATOM      9  C   UNL     1       8.010  -6.482  29.981  1.00  0.00    -0.000 C 
BRANCH   9  10
ATOM     10  C   UNL     1       8.059  -5.642  28.686  1.00  0.00    -0.000 C 
BRANCH  10  11
ATOM     11  C   UNL     1       6.770  -4.847  28.421  1.00  0.00    -0.003 C 
ATOM     12  C   UNL     1       5.692  -5.670  27.720  1.00  0.00     0.004 C 
ENDBRANCH  10  11
ENDBRANCH   9  10
ENDBRANCH   8   9
ENDBRANCH   7   8
ENDBRANCH   6   7
ENDBRANCH   5   6
ENDBRANCH   4   5
ENDBRANCH   3   4
ENDBRANCH   2   3
ENDBRANCH   1   2
BRANCH   1  13
ATOM     13  C   UNL     1       6.080  -9.663  25.165  1.00  0.00     0.000 C 
BRANCH  13  14
ATOM     14  C   UNL     1       7.287  -8.797  24.783  1.00  0.00     0.000 C 
BRANCH  14  15
ATOM     15  C   UNL     1       8.197  -9.522  23.784  1.00  0.00     0.000 C 
BRANCH  15  16
ATOM     16  C   UNL     1       7.976  -9.067  22.330  1.00  0.00     0.000 C 
BRANCH  16  17
ATOM     17  C   UNL     1       6.990  -9.954  21.542  1.00  0.00     0.000 C 
BRANCH  17  18
ATOM     18  C   UNL     1       5.936  -9.126  20.784  1.00  0.00     0.000 C 
BRANCH  18  19
ATOM     19  C   UNL     1       5.180  -8.152  21.701  1.00  0.00     0.000 C 
BRANCH  19  20
ATOM     20  C   UNL     1       5.624  -6.695  21.507  1.00  0.00     0.006 C 
BRANCH  20  21
ATOM     21  C   UNL     1       5.805  -5.993  22.858  1.00  0.00     0.053 C 
BRANCH  21  22
ATOM     22  C   UNL     1       4.502  -5.921  23.591  1.00  0.00     0.041 C 
ATOM     23  O   UNL     1       4.333  -6.581  24.651  1.00  0.00    -0.550 OA
ATOM     24  O   UNL     1       3.458  -5.159  23.080  1.00  0.00    -0.550 OA
ENDBRANCH  21  22
ENDBRANCH  20  21
ENDBRANCH  19  20
ENDBRANCH  18  19
ENDBRANCH  17  18
ENDBRANCH  16  17
ENDBRANCH  15  16
ENDBRANCH  14  15
ENDBRANCH  13  14
ENDBRANCH   1  13
TORSDOF 20
ENDMDL
MODEL 8
REMARK VINA RESULT:    -4.221      2.011      4.750
REMARK INTER + INTRA:         -12.720
REMARK INTER:                  -9.753
REMARK INTRA:                  -2.967
REMARK UNBOUND:                -3.564
REMARK SMILES CCCCCCCCCCCCCCCCCCCCCC(=O)[O-]
REMARK SMILES IDX 12 1 11 2 10 3 9 4 8 5 7 6 6 7 5 8 4 9 3 10 2 11 1 12 13 13
REMARK SMILES IDX 14 14 15 15 16 16 17 17 18 18 19 19 20 20 21 21 22 22 23 23
REMARK SMILES IDX 24 24
REMARK H PARENT
REMARK Flexibility Score: inf
ROOT
ATOM      1  C   UNL     1       6.796  -4.766  27.202  1.00  0.00     0.000 C 
ENDROOT
BRANCH   1   2
ATOM      2  C   UNL     1       6.798  -5.056  28.711  1.00  0.00     0.000 C 
BRANCH   2   3
ATOM      3  C   UNL     1       8.164  -5.558  29.214  1.00  0.00     0.000 C 
BRANCH   3   4
ATOM      4  C   UNL     1       8.049  -6.339  30.541  1.00  0.00    -0.000 C 
BRANCH   4   5
ATOM      5  C   UNL     1       7.034  -5.739  31.533  1.00  0.00    -0.000 C 
BRANCH   5   6
ATOM      6  C   UNL     1       5.812  -6.626  31.821  1.00  0.00    -0.000 C 
BRANCH   6   7
ATOM      7  C   UNL     1       5.923  -8.018  31.172  1.00  0.00    -0.000 C 
BRANCH   7   8
ATOM      8  C   UNL     1       4.740  -8.332  30.242  1.00  0.00    -0.000 C 
BRANCH   8   9
ATOM      9  C   UNL     1       5.144  -8.376  28.759  1.00  0.00    -0.000 C 
BRANCH   9  10
ATOM     10  C   UNL     1       6.503  -9.078  28.549  1.00  0.00    -0.000 C 
BRANCH  10  11
ATOM     11  C   UNL     1       7.104  -8.843  27.153  1.00  0.00    -0.003 C 
ATOM     12  C   UNL     1       8.578  -8.445  27.194  1.00  0.00     0.004 C 
ENDBRANCH  10  11
ENDBRANCH   9  10
ENDBRANCH   8   9
ENDBRANCH   7   8
ENDBRANCH   6   7
ENDBRANCH   5   6
ENDBRANCH   4   5
ENDBRANCH   3   4
ENDBRANCH   2   3
ENDBRANCH   1   2
BRANCH   1  13
ATOM     13  C   UNL     1       5.705  -5.543  26.452  1.00  0.00     0.000 C 
BRANCH  13  14
ATOM     14  C   UNL     1       6.116  -5.791  24.995  1.00  0.00     0.000 C 
BRANCH  14  15
ATOM     15  C   UNL     1       5.030  -6.562  24.233  1.00  0.00     0.000 C 
BRANCH  15  16
ATOM     16  C   UNL     1       4.391  -5.737  23.102  1.00  0.00     0.000 C 
BRANCH  16  17
ATOM     17  C   UNL     1       4.394  -6.450  21.733  1.00  0.00     0.000 C 
BRANCH  17  18
ATOM     18  C   UNL     1       3.374  -7.602  21.671  1.00  0.00     0.000 C 
BRANCH  18  19
ATOM     19  C   UNL     1       4.028  -8.952  21.333  1.00  0.00     0.000 C 
BRANCH  19  20
ATOM     20  C   UNL     1       5.451  -8.795  20.779  1.00  0.00     0.006 C 
BRANCH  20  21
ATOM     21  C   UNL     1       6.385  -9.862  21.360  1.00  0.00     0.053 C 
BRANCH  21  22
ATOM     22  C   UNL     1       7.687  -9.251  21.775  1.00  0.00     0.041 C 
ATOM     23  O   UNL     1       8.768  -9.658  21.272  1.00  0.00    -0.550 OA
ATOM     24  O   UNL     1       7.711  -8.261  22.750  1.00  0.00    -0.550 OA
ENDBRANCH  21  22
ENDBRANCH  20  21
ENDBRANCH  19  20
ENDBRANCH  18  19
ENDBRANCH  17  18
ENDBRANCH  16  17
ENDBRANCH  15  16
ENDBRANCH  14  15
ENDBRANCH  13  14
ENDBRANCH   1  13
TORSDOF 20
ENDMDL
MODEL 9
REMARK VINA RESULT:    -4.200      2.302      6.260
REMARK INTER + INTRA:         -12.675
REMARK INTER:                  -9.958
REMARK INTRA:                  -2.717
REMARK UNBOUND:                -3.564
REMARK SMILES CCCCCCCCCCCCCCCCCCCCCC(=O)[O-]
REMARK SMILES IDX 12 1 11 2 10 3 9 4 8 5 7 6 6 7 5 8 4 9 3 10 2 11 1 12 13 13
REMARK SMILES IDX 14 14 15 15 16 16 17 17 18 18 19 19 20 20 21 21 22 22 23 23
REMARK SMILES IDX 24 24
REMARK H PARENT
REMARK Flexibility Score: inf
ROOT
ATOM      1  C   UNL     1       6.149  -9.170  28.370  1.00  0.00     0.000 C 
ENDROOT
BRANCH   1   2
ATOM      2  C   UNL     1       5.789  -9.633  26.950  1.00  0.00     0.000 C 
BRANCH   2   3
ATOM      3  C   UNL     1       5.192  -8.502  26.092  1.00  0.00     0.000 C 
BRANCH   3   4
ATOM      4  C   UNL     1       5.912  -8.352  24.735  1.00  0.00    -0.000 C 
BRANCH   4   5
ATOM      5  C   UNL     1       7.375  -8.835  24.747  1.00  0.00    -0.000 C 
BRANCH   5   6
ATOM      6  C   UNL     1       7.835  -9.530  23.456  1.00  0.00    -0.000 C 
BRANCH   6   7
ATOM      7  C   UNL     1       7.552  -8.691  22.196  1.00  0.00    -0.000 C 
BRANCH   7   8
ATOM      8  C   UNL     1       6.674  -9.433  21.178  1.00  0.00    -0.000 C 
BRANCH   8   9
ATOM      9  C   UNL     1       5.374  -8.679  20.851  1.00  0.00    -0.000 C 
BRANCH   9  10
ATOM     10  C   UNL     1       5.486  -7.170  21.157  1.00  0.00    -0.000 C 
BRANCH  10  11
ATOM     11  C   UNL     1       4.129  -6.496  21.419  1.00  0.00    -0.003 C 
ATOM     12  C   UNL     1       4.045  -5.830  22.791  1.00  0.00     0.004 C 
ENDBRANCH  10  11
ENDBRANCH   9  10
ENDBRANCH   8   9
ENDBRANCH   7   8
ENDBRANCH   6   7
ENDBRANCH   5   6
ENDBRANCH   4   5
ENDBRANCH   3   4
ENDBRANCH   2   3
ENDBRANCH   1   2
BRANCH   1  13
ATOM     13  C   UNL     1       4.994  -9.358  29.364  1.00  0.00     0.000 C 
BRANCH  13  14
ATOM     14  C   UNL     1       4.751  -8.073  30.166  1.00  0.00     0.000 C 
BRANCH  14  15
ATOM     15  C   UNL     1       5.720  -7.965  31.350  1.00  0.00     0.000 C 
BRANCH  15  16
ATOM     16  C   UNL     1       5.673  -6.591  32.041  1.00  0.00     0.000 C 
BRANCH  16  17
ATOM     17  C   UNL     1       6.831  -5.652  31.643  1.00  0.00     0.000 C 
BRANCH  17  18
ATOM     18  C   UNL     1       8.029  -6.418  31.053  1.00  0.00     0.000 C 
BRANCH  18  19
ATOM     19  C   UNL     1       8.268  -6.089  29.571  1.00  0.00     0.000 C 
BRANCH  19  20
ATOM     20  C   UNL     1       7.239  -5.095  29.014  1.00  0.00     0.006 C 
BRANCH  20  21
ATOM     21  C   UNL     1       6.743  -5.537  27.632  1.00  0.00     0.053 C 
BRANCH  21  22
ATOM     22  C   UNL     1       6.800  -4.397  26.664  1.00  0.00     0.041 C 
ATOM     23  O   UNL     1       6.535  -4.584  25.447  1.00  0.00    -0.550 OA
ATOM     24  O   UNL     1       7.188  -3.135  27.098  1.00  0.00    -0.550 OA
ENDBRANCH  21  22
ENDBRANCH  20  21
ENDBRANCH  19  20
ENDBRANCH  18  19
ENDBRANCH  17  18
ENDBRANCH  16  17
ENDBRANCH  15  16
ENDBRANCH  14  15
ENDBRANCH  13  14
ENDBRANCH   1  13
TORSDOF 20
ENDMDL
