MODEL 1
REMARK VINA RESULT:    -5.107      0.000      0.000
REMARK INTER + INTRA:         -16.962
REMARK INTER:                 -12.868
REMARK INTRA:                  -4.094
REMARK UNBOUND:                -4.094
REMARK SMILES CCCCCCCCCCCCCCCCCCCCCCCCCCCC(=O)[O-]
REMARK SMILES IDX 15 1 16 2 17 3 18 4 19 5 20 6 21 7 22 8 23 9 24 10 25 11
REMARK SMILES IDX 26 12 27 13 28 14 29 15 30 16 14 17 13 18 12 19 11 20 10 21
REMARK SMILES IDX 9 22 8 23 7 24 6 25 5 26 4 27 3 28 2 29 1 30
REMARK H PARENT
REMARK Flexibility Score: inf
ROOT
ATOM      1  C   UNL     1      18.375  21.318  10.029  1.00  0.00     0.000 C 
ENDROOT
BRANCH   1   2
ATOM      2  C   UNL     1      18.334  22.478  11.041  1.00  0.00     0.000 C 
BRANCH   2   3
ATOM      3  C   UNL     1      16.965  23.177  11.094  1.00  0.00     0.000 C 
BRANCH   3   4
ATOM      4  C   UNL     1      17.008  24.620  10.566  1.00  0.00     0.000 C 
BRANCH   4   5
ATOM      5  C   UNL     1      18.411  25.041  10.094  1.00  0.00     0.000 C 
BRANCH   5   6
ATOM      6  C   UNL     1      18.529  25.094   8.559  1.00  0.00     0.000 C 
BRANCH   6   7
ATOM      7  C   UNL     1      17.228  24.784   7.794  1.00  0.00     0.000 C 
BRANCH   7   8
ATOM      8  C   UNL     1      17.164  23.392   7.134  1.00  0.00     0.000 C 
BRANCH   8   9
ATOM      9  C   UNL     1      18.365  23.075   6.216  1.00  0.00     0.000 C 
BRANCH   9  10
ATOM     10  C   UNL     1      18.369  21.614   5.729  1.00  0.00     0.000 C 
BRANCH  10  11
ATOM     11  C   UNL     1      17.112  20.834   6.156  1.00  0.00     0.000 C 
BRANCH  11  12
ATOM     12  C   UNL     1      17.344  19.346   6.471  1.00  0.00     0.006 C 
BRANCH  12  13
ATOM     13  C   UNL     1      18.828  18.992   6.644  1.00  0.00     0.053 C 
BRANCH  13  14
ATOM     14  C   UNL     1      19.038  17.510   6.606  1.00  0.00     0.041 C 
ATOM     15  O   UNL     1      20.200  17.038   6.476  1.00  0.00    -0.550 OA
ATOM     16  O   UNL     1      17.949  16.646   6.667  1.00  0.00    -0.550 OA
ENDBRANCH  13  14
ENDBRANCH  12  13
ENDBRANCH  11  12
ENDBRANCH  10  11
ENDBRANCH   9  10
ENDBRANCH   8   9
ENDBRANCH   7   8
ENDBRANCH   6   7
ENDBRANCH   5   6
ENDBRANCH   4   5
ENDBRANCH   3   4
ENDBRANCH   2   3
ENDBRANCH   1   2
BRANCH   1  17
ATOM     17  C   UNL     1      19.621  21.273   9.122  1.00  0.00     0.000 C 
BRANCH  17  18
ATOM     18  C   UNL     1      20.629  22.418   9.331  1.00  0.00     0.000 C 
BRANCH  18  19
ATOM     19  C   UNL     1      21.609  22.575   8.157  1.00  0.00     0.000 C 
BRANCH  19  20
ATOM     20  C   UNL     1      21.718  21.305   7.297  1.00  0.00     0.000 C 
BRANCH  20  21
ATOM     21  C   UNL     1      21.979  21.586   5.801  1.00  0.00     0.000 C 
BRANCH  21  22
ATOM     22  C   UNL     1      21.773  20.335   4.930  1.00  0.00    -0.000 C 
BRANCH  22  23
ATOM     23  C   UNL     1      23.112  19.665   4.549  1.00  0.00    -0.000 C 
BRANCH  23  24
ATOM     24  C   UNL     1      23.650  18.702   5.622  1.00  0.00    -0.000 C 
BRANCH  24  25
ATOM     25  C   UNL     1      23.474  17.223   5.238  1.00  0.00    -0.000 C 
BRANCH  25  26
ATOM     26  C   UNL     1      24.626  16.690   4.366  1.00  0.00    -0.000 C 
BRANCH  26  27
ATOM     27  C   UNL     1      26.036  17.133   4.802  1.00  0.00    -0.000 C 
BRANCH  27  28
ATOM     28  C   UNL     1      27.147  16.212   4.267  1.00  0.00    -0.000 C 
BRANCH  28  29
ATOM     29  C   UNL     1      27.988  15.585   5.392  1.00  0.00    -0.003 C 
ATOM     30  C   UNL     1      29.072  16.524   5.920  1.00  0.00     0.004 C 
ENDBRANCH  28  29
ENDBRANCH  27  28
ENDBRANCH  26  27
ENDBRANCH  25  26
ENDBRANCH  24  25
ENDBRANCH  23  24
ENDBRANCH  22  23
ENDBRANCH  21  22
ENDBRANCH  20  21
ENDBRANCH  19  20
ENDBRANCH  18  19
ENDBRANCH  17  18
ENDBRANCH   1  17
TORSDOF 26
ENDMDL
MODEL 2
REMARK VINA RESULT:    -5.019      3.215      5.188
REMARK INTER + INTRA:         -16.742
REMARK INTER:                 -12.498
REMARK INTRA:                  -4.244
REMARK UNBOUND:                -4.094
REMARK SMILES CCCCCCCCCCCCCCCCCCCCCCCCCCCC(=O)[O-]
REMARK SMILES IDX 15 1 16 2 17 3 18 4 19 5 20 6 21 7 22 8 23 9 24 10 25 11
REMARK SMILES IDX 26 12 27 13 28 14 29 15 30 16 14 17 13 18 12 19 11 20 10 21
REMARK SMILES IDX 9 22 8 23 7 24 6 25 5 26 4 27 3 28 2 29 1 30
REMARK H PARENT
REMARK Flexibility Score: inf
ROOT
ATOM      1  C   UNL     1      18.629  22.121  11.334  1.00  0.00     0.000 C 
ENDROOT
BRANCH   1   2
ATOM      2  C   UNL     1      19.652  22.071  10.184  1.00  0.00     0.000 C 
BRANCH   2   3
ATOM      3  C   UNL     1      20.763  23.125  10.326  1.00  0.00     0.000 C 
BRANCH   3   4
ATOM      4  C   UNL     1      21.762  23.103   9.158  1.00  0.00     0.000 C 
BRANCH   4   5
ATOM      5  C   UNL     1      22.635  21.836   9.143  1.00  0.00     0.000 C 
BRANCH   5   6
ATOM      6  C   UNL     1      22.524  21.056   7.818  1.00  0.00     0.000 C 
BRANCH   6   7
ATOM      7  C   UNL     1      21.117  21.030   7.192  1.00  0.00     0.000 C 
BRANCH   7   8
ATOM      8  C   UNL     1      20.995  21.708   5.812  1.00  0.00     0.000 C 
BRANCH   8   9
ATOM      9  C   UNL     1      19.607  22.325   5.535  1.00  0.00     0.000 C 
BRANCH   9  10
ATOM     10  C   UNL     1      19.070  23.134   6.730  1.00  0.00     0.000 C 
BRANCH  10  11
ATOM     11  C   UNL     1      17.596  23.548   6.563  1.00  0.00     0.000 C 
BRANCH  11  12
ATOM     12  C   UNL     1      17.109  24.634   7.539  1.00  0.00     0.006 C 
BRANCH  12  13
ATOM     13  C   UNL     1      17.973  24.737   8.803  1.00  0.00     0.053 C 
BRANCH  13  14
ATOM     14  C   UNL     1      18.416  26.148   9.041  1.00  0.00     0.041 C 
ATOM     15  O   UNL     1      19.504  26.378   9.636  1.00  0.00    -0.550 OA
ATOM     16  O   UNL     1      17.611  27.211   8.648  1.00  0.00    -0.550 OA
ENDBRANCH  13  14
ENDBRANCH  12  13
ENDBRANCH  11  12
ENDBRANCH  10  11
ENDBRANCH   9  10
ENDBRANCH   8   9
ENDBRANCH   7   8
ENDBRANCH   6   7
ENDBRANCH   5   6
ENDBRANCH   4   5
ENDBRANCH   3   4
ENDBRANCH   2   3
ENDBRANCH   1   2
BRANCH   1  17
ATOM     17  C   UNL     1      17.170  21.813  10.937  1.00  0.00     0.000 C 
BRANCH  17  18
ATOM     18  C   UNL     1      16.954  20.471  10.215  1.00  0.00     0.000 C 
BRANCH  18  19
ATOM     19  C   UNL     1      16.908  20.615   8.686  1.00  0.00     0.000 C 
BRANCH  19  20
ATOM     20  C   UNL     1      17.908  19.694   7.968  1.00  0.00     0.000 C 
BRANCH  20  21
ATOM     21  C   UNL     1      17.678  19.590   6.444  1.00  0.00     0.000 C 
BRANCH  21  22
ATOM     22  C   UNL     1      17.722  18.134   5.948  1.00  0.00    -0.000 C 
BRANCH  22  23
ATOM     23  C   UNL     1      19.119  17.743   5.420  1.00  0.00    -0.000 C 
BRANCH  23  24
ATOM     24  C   UNL     1      19.505  16.281   5.712  1.00  0.00    -0.000 C 
BRANCH  24  25
ATOM     25  C   UNL     1      20.665  16.159   6.713  1.00  0.00    -0.000 C 
BRANCH  25  26
ATOM     26  C   UNL     1      22.001  15.794   6.040  1.00  0.00    -0.000 C 
BRANCH  26  27
ATOM     27  C   UNL     1      22.068  16.068   4.525  1.00  0.00    -0.000 C 
BRANCH  27  28
ATOM     28  C   UNL     1      23.193  17.044   4.139  1.00  0.00    -0.000 C 
BRANCH  28  29
ATOM     29  C   UNL     1      23.106  18.376   4.902  1.00  0.00    -0.003 C 
ATOM     30  C   UNL     1      24.368  18.685   5.707  1.00  0.00     0.004 C 
ENDBRANCH  28  29
ENDBRANCH  27  28
ENDBRANCH  26  27
ENDBRANCH  25  26
ENDBRANCH  24  25
ENDBRANCH  23  24
ENDBRANCH  22  23
ENDBRANCH  21  22
ENDBRANCH  20  21
ENDBRANCH  19  20
ENDBRANCH  18  19
ENDBRANCH  17  18
ENDBRANCH   1  17
TORSDOF 26
ENDMDL
MODEL 3
REMARK VINA RESULT:    -4.758      2.318      8.080
REMARK INTER + INTRA:         -16.084
REMARK INTER:                 -12.311
REMARK INTRA:                  -3.773
REMARK UNBOUND:                -4.094
REMARK SMILES CCCCCCCCCCCCCCCCCCCCCCCCCCCC(=O)[O-]
REMARK SMILES IDX 15 1 16 2 17 3 18 4 19 5 20 6 21 7 22 8 23 9 24 10 25 11
REMARK SMILES IDX 26 12 27 13 28 14 29 15 30 16 14 17 13 18 12 19 11 20 10 21
REMARK SMILES IDX 9 22 8 23 7 24 6 25 5 26 4 27 3 28 2 29 1 30
REMARK H PARENT
REMARK Flexibility Score: inf
ROOT
ATOM      1  C   UNL     1      21.746  21.418   5.994  1.00  0.00     0.000 C 
ENDROOT
BRANCH   1   2
ATOM      2  C   UNL     1      20.338  21.974   5.711  1.00  0.00     0.000 C 
BRANCH   2   3
ATOM      3  C   UNL     1      19.851  21.671   4.283  1.00  0.00     0.000 C 
BRANCH   3   4
ATOM      4  C   UNL     1      19.604  20.174   4.039  1.00  0.00     0.000 C 
BRANCH   4   5
ATOM      5  C   UNL     1      18.239  19.700   4.570  1.00  0.00     0.000 C 
BRANCH   5   6
ATOM      6  C   UNL     1      18.357  18.479   5.502  1.00  0.00     0.000 C 
BRANCH   6   7
ATOM      7  C   UNL     1      19.658  17.667   5.353  1.00  0.00     0.000 C 
BRANCH   7   8
ATOM      8  C   UNL     1      20.756  17.982   6.389  1.00  0.00     0.000 C 
BRANCH   8   9
ATOM      9  C   UNL     1      22.107  17.293   6.101  1.00  0.00     0.000 C 
BRANCH   9  10
ATOM     10  C   UNL     1      21.971  15.769   5.929  1.00  0.00     0.000 C 
BRANCH  10  11
ATOM     11  C   UNL     1      22.458  15.273   4.555  1.00  0.00     0.000 C 
BRANCH  11  12
ATOM     12  C   UNL     1      23.529  16.153   3.887  1.00  0.00     0.006 C 
BRANCH  12  13
ATOM     13  C   UNL     1      24.962  15.732   4.244  1.00  0.00     0.053 C 
BRANCH  13  14
ATOM     14  C   UNL     1      25.815  16.926   4.546  1.00  0.00     0.041 C 
ATOM     15  O   UNL     1      25.425  17.788   5.378  1.00  0.00    -0.550 OA
ATOM     16  O   UNL     1      27.020  17.113   3.876  1.00  0.00    -0.550 OA
ENDBRANCH  13  14
ENDBRANCH  12  13
ENDBRANCH  11  12
ENDBRANCH  10  11
ENDBRANCH   9  10
ENDBRANCH   8   9
ENDBRANCH   7   8
ENDBRANCH   6   7
ENDBRANCH   5   6
ENDBRANCH   4   5
ENDBRANCH   3   4
ENDBRANCH   2   3
ENDBRANCH   1   2
BRANCH   1  17
ATOM     17  C   UNL     1      22.159  21.387   7.480  1.00  0.00     0.000 C 
BRANCH  17  18
ATOM     18  C   UNL     1      21.132  21.981   8.461  1.00  0.00     0.000 C 
BRANCH  18  19
ATOM     19  C   UNL     1      21.716  23.109   9.327  1.00  0.00     0.000 C 
BRANCH  19  20
ATOM     20  C   UNL     1      20.998  23.258  10.678  1.00  0.00     0.000 C 
BRANCH  20  21
ATOM     21  C   UNL     1      19.457  23.223  10.573  1.00  0.00     0.000 C 
BRANCH  21  22
ATOM     22  C   UNL     1      18.849  22.035  11.338  1.00  0.00    -0.000 C 
BRANCH  22  23
ATOM     23  C   UNL     1      17.628  21.436  10.606  1.00  0.00    -0.000 C 
BRANCH  23  24
ATOM     24  C   UNL     1      18.001  20.512   9.433  1.00  0.00    -0.000 C 
BRANCH  24  25
ATOM     25  C   UNL     1      17.560  21.069   8.070  1.00  0.00    -0.000 C 
BRANCH  25  26
ATOM     26  C   UNL     1      16.946  22.478   8.170  1.00  0.00    -0.000 C 
BRANCH  26  27
ATOM     27  C   UNL     1      17.529  23.517   7.194  1.00  0.00    -0.000 C 
BRANCH  27  28
ATOM     28  C   UNL     1      17.249  24.968   7.624  1.00  0.00    -0.000 C 
BRANCH  28  29
ATOM     29  C   UNL     1      17.952  25.341   8.939  1.00  0.00    -0.003 C 
ATOM     30  C   UNL     1      18.966  26.473   8.772  1.00  0.00     0.004 C 
ENDBRANCH  28  29
ENDBRANCH  27  28
ENDBRANCH  26  27
ENDBRANCH  25  26
ENDBRANCH  24  25
ENDBRANCH  23  24
ENDBRANCH  22  23
ENDBRANCH  21  22
ENDBRANCH  20  21
ENDBRANCH  19  20
ENDBRANCH  18  19
ENDBRANCH  17  18
ENDBRANCH   1  17
TORSDOF 26
ENDMDL
MODEL 4
REMARK VINA RESULT:    -4.716      1.839      7.940
REMARK INTER + INTRA:         -15.977
REMARK INTER:                 -12.123
REMARK INTRA:                  -3.855
REMARK UNBOUND:                -4.094
REMARK SMILES CCCCCCCCCCCCCCCCCCCCCCCCCCCC(=O)[O-]
REMARK SMILES IDX 15 1 16 2 17 3 18 4 19 5 20 6 21 7 22 8 23 9 24 10 25 11
REMARK SMILES IDX 26 12 27 13 28 14 29 15 30 16 14 17 13 18 12 19 11 20 10 21
REMARK SMILES IDX 9 22 8 23 7 24 6 25 5 26 4 27 3 28 2 29 1 30
REMARK H PARENT
REMARK Flexibility Score: inf
ROOT
ATOM      1  C   UNL     1      22.892  20.423   7.501  1.00  0.00     0.000 C 
ENDROOT
BRANCH   1   2
ATOM      2  C   UNL     1      22.863  19.208   6.555  1.00  0.00     0.000 C 
BRANCH   2   3
ATOM      3  C   UNL     1      22.879  19.606   5.070  1.00  0.00     0.000 C 
BRANCH   3   4
ATOM      4  C   UNL     1      24.014  18.934   4.281  1.00  0.00     0.000 C 
BRANCH   4   5
ATOM      5  C   UNL     1      25.090  18.318   5.192  1.00  0.00     0.000 C 
BRANCH   5   6
ATOM      6  C   UNL     1      25.645  16.990   4.641  1.00  0.00     0.000 C 
BRANCH   6   7
ATOM      7  C   UNL     1      24.619  16.115   3.896  1.00  0.00     0.000 C 
BRANCH   7   8
ATOM      8  C   UNL     1      24.348  14.733   4.524  1.00  0.00     0.000 C 
BRANCH   8   9
ATOM      9  C   UNL     1      22.881  14.514   4.952  1.00  0.00     0.000 C 
BRANCH   9  10
ATOM     10  C   UNL     1      22.218  15.801   5.475  1.00  0.00     0.000 C 
BRANCH  10  11
ATOM     11  C   UNL     1      21.043  16.273   4.598  1.00  0.00     0.000 C 
BRANCH  11  12
ATOM     12  C   UNL     1      19.653  16.145   5.246  1.00  0.00     0.006 C 
BRANCH  12  13
ATOM     13  C   UNL     1      19.657  16.470   6.746  1.00  0.00     0.053 C 
BRANCH  13  14
ATOM     14  C   UNL     1      19.255  15.277   7.558  1.00  0.00     0.041 C 
ATOM     15  O   UNL     1      18.038  15.061   7.806  1.00  0.00    -0.550 OA
ATOM     16  O   UNL     1      20.223  14.426   8.081  1.00  0.00    -0.550 OA
ENDBRANCH  13  14
ENDBRANCH  12  13
ENDBRANCH  11  12
ENDBRANCH  10  11
ENDBRANCH   9  10
ENDBRANCH   8   9
ENDBRANCH   7   8
ENDBRANCH   6   7
ENDBRANCH   5   6
ENDBRANCH   4   5
ENDBRANCH   3   4
ENDBRANCH   2   3
ENDBRANCH   1   2
BRANCH   1  17
ATOM     17  C   UNL     1      21.515  21.027   7.847  1.00  0.00     0.000 C 
BRANCH  17  18
ATOM     18  C   UNL     1      21.498  22.553   8.048  1.00  0.00     0.000 C 
BRANCH  18  19
ATOM     19  C   UNL     1      21.749  22.966   9.508  1.00  0.00     0.000 C 
BRANCH  19  20
ATOM     20  C   UNL     1      20.513  23.593  10.173  1.00  0.00     0.000 C 
BRANCH  20  21
ATOM     21  C   UNL     1      19.819  24.670   9.311  1.00  0.00     0.000 C 
BRANCH  21  22
ATOM     22  C   UNL     1      18.371  24.930   9.758  1.00  0.00    -0.000 C 
BRANCH  22  23
ATOM     23  C   UNL     1      17.464  25.344   8.578  1.00  0.00    -0.000 C 
BRANCH  23  24
ATOM     24  C   UNL     1      16.945  24.155   7.750  1.00  0.00    -0.000 C 
BRANCH  24  25
ATOM     25  C   UNL     1      17.125  22.806   8.466  1.00  0.00    -0.000 C 
BRANCH  25  26
ATOM     26  C   UNL     1      17.859  21.763   7.603  1.00  0.00    -0.000 C 
BRANCH  26  27
ATOM     27  C   UNL     1      17.738  21.970   6.081  1.00  0.00    -0.000 C 
BRANCH  27  28
ATOM     28  C   UNL     1      19.061  22.406   5.426  1.00  0.00    -0.000 C 
BRANCH  28  29
ATOM     29  C   UNL     1      19.773  21.248   4.707  1.00  0.00    -0.003 C 
ATOM     30  C   UNL     1      18.857  20.053   4.450  1.00  0.00     0.004 C 
ENDBRANCH  28  29
ENDBRANCH  27  28
ENDBRANCH  26  27
ENDBRANCH  25  26
ENDBRANCH  24  25
ENDBRANCH  23  24
ENDBRANCH  22  23
ENDBRANCH  21  22
ENDBRANCH  20  21
ENDBRANCH  19  20
ENDBRANCH  18  19
ENDBRANCH  17  18
ENDBRANCH   1  17
TORSDOF 26
ENDMDL
MODEL 5
REMARK VINA RESULT:    -4.647      4.220     10.440
REMARK INTER + INTRA:         -15.804
REMARK INTER:                 -13.273
REMARK INTRA:                  -2.531
REMARK UNBOUND:                -4.094
REMARK SMILES CCCCCCCCCCCCCCCCCCCCCCCCCCCC(=O)[O-]
REMARK SMILES IDX 15 1 16 2 17 3 18 4 19 5 20 6 21 7 22 8 23 9 24 10 25 11
REMARK SMILES IDX 26 12 27 13 28 14 29 15 30 16 14 17 13 18 12 19 11 20 10 21
REMARK SMILES IDX 9 22 8 23 7 24 6 25 5 26 4 27 3 28 2 29 1 30
REMARK H PARENT
REMARK Flexibility Score: inf
ROOT
ATOM      1  C   UNL     1      22.520  21.250   8.352  1.00  0.00     0.000 C 
ENDROOT
BRANCH   1   2
ATOM      2  C   UNL     1      22.422  20.494   7.014  1.00  0.00     0.000 C 
BRANCH   2   3
ATOM      3  C   UNL     1      23.184  19.157   7.025  1.00  0.00     0.000 C 
BRANCH   3   4
ATOM      4  C   UNL     1      24.033  18.940   5.762  1.00  0.00     0.000 C 
BRANCH   4   5
ATOM      5  C   UNL     1      23.537  17.763   4.905  1.00  0.00     0.000 C 
BRANCH   5   6
ATOM      6  C   UNL     1      24.692  16.957   4.279  1.00  0.00     0.000 C 
BRANCH   6   7
ATOM      7  C   UNL     1      26.096  17.316   4.802  1.00  0.00     0.000 C 
BRANCH   7   8
ATOM      8  C   UNL     1      27.268  16.611   4.089  1.00  0.00     0.000 C 
BRANCH   8   9
ATOM      9  C   UNL     1      28.535  16.462   4.958  1.00  0.00     0.000 C 
BRANCH   9  10
ATOM     10  C   UNL     1      29.733  15.905   4.169  1.00  0.00     0.000 C 
BRANCH  10  11
ATOM     11  C   UNL     1      31.061  15.998   4.944  1.00  0.00     0.000 C 
BRANCH  11  12
ATOM     12  C   UNL     1      31.760  14.652   5.203  1.00  0.00     0.006 C 
BRANCH  12  13
ATOM     13  C   UNL     1      33.160  14.573   4.578  1.00  0.00     0.053 C 
BRANCH  13  14
ATOM     14  C   UNL     1      34.195  14.247   5.611  1.00  0.00     0.041 C 
ATOM     15  O   UNL     1      35.386  14.021   5.264  1.00  0.00    -0.550 OA
ATOM     16  O   UNL     1      33.840  14.147   6.952  1.00  0.00    -0.550 OA
ENDBRANCH  13  14
ENDBRANCH  12  13
ENDBRANCH  11  12
ENDBRANCH  10  11
ENDBRANCH   9  10
ENDBRANCH   8   9
ENDBRANCH   7   8
ENDBRANCH   6   7
ENDBRANCH   5   6
ENDBRANCH   4   5
ENDBRANCH   3   4
ENDBRANCH   2   3
ENDBRANCH   1   2
BRANCH   1  17
ATOM     17  C   UNL     1      21.644  22.515   8.463  1.00  0.00     0.000 C 
BRANCH  17  18
ATOM     18  C   UNL     1      21.562  23.137   9.869  1.00  0.00     0.000 C 
BRANCH  18  19
ATOM     19  C   UNL     1      20.140  23.592  10.239  1.00  0.00     0.000 C 
BRANCH  19  20
ATOM     20  C   UNL     1      19.506  24.498   9.171  1.00  0.00     0.000 C 
BRANCH  20  21
ATOM     21  C   UNL     1      18.003  24.231   8.939  1.00  0.00     0.000 C 
BRANCH  21  22
ATOM     22  C   UNL     1      17.554  24.624   7.521  1.00  0.00    -0.000 C 
BRANCH  22  23
ATOM     23  C   UNL     1      17.708  23.457   6.520  1.00  0.00    -0.000 C 
BRANCH  23  24
ATOM     24  C   UNL     1      19.169  23.042   6.272  1.00  0.00    -0.000 C 
BRANCH  24  25
ATOM     25  C   UNL     1      19.305  21.958   5.190  1.00  0.00    -0.000 C 
BRANCH  25  26
ATOM     26  C   UNL     1      18.470  20.700   5.494  1.00  0.00    -0.000 C 
BRANCH  26  27
ATOM     27  C   UNL     1      18.897  19.918   6.750  1.00  0.00    -0.000 C 
BRANCH  27  28
ATOM     28  C   UNL     1      17.862  19.995   7.887  1.00  0.00    -0.000 C 
BRANCH  28  29
ATOM     29  C   UNL     1      18.436  20.624   9.167  1.00  0.00    -0.003 C 
ATOM     30  C   UNL     1      17.372  20.879  10.234  1.00  0.00     0.004 C 
ENDBRANCH  28  29
ENDBRANCH  27  28
ENDBRANCH  26  27
ENDBRANCH  25  26
ENDBRANCH  24  25
ENDBRANCH  23  24
ENDBRANCH  22  23
ENDBRANCH  21  22
ENDBRANCH  20  21
ENDBRANCH  19  20
ENDBRANCH  18  19
ENDBRANCH  17  18
ENDBRANCH   1  17
TORSDOF 26
ENDMDL
MODEL 6
REMARK VINA RESULT:    -4.621      3.951     10.437
REMARK INTER + INTRA:         -15.737
REMARK INTER:                 -12.860
REMARK INTRA:                  -2.877
REMARK UNBOUND:                -4.094
REMARK SMILES CCCCCCCCCCCCCCCCCCCCCCCCCCCC(=O)[O-]
REMARK SMILES IDX 15 1 16 2 17 3 18 4 19 5 20 6 21 7 22 8 23 9 24 10 25 11
REMARK SMILES IDX 26 12 27 13 28 14 29 15 30 16 14 17 13 18 12 19 11 20 10 21
REMARK SMILES IDX 9 22 8 23 7 24 6 25 5 26 4 27 3 28 2 29 1 30
REMARK H PARENT
REMARK Flexibility Score: inf
ROOT
ATOM      1  C   UNL     1      22.019  21.220   7.585  1.00  0.00     0.000 C 
ENDROOT
BRANCH   1   2
ATOM      2  C   UNL     1      22.814  19.929   7.317  1.00  0.00     0.000 C 
BRANCH   2   3
ATOM      3  C   UNL     1      22.414  19.244   5.998  1.00  0.00     0.000 C 
BRANCH   3   4
ATOM      4  C   UNL     1      22.533  17.712   6.058  1.00  0.00     0.000 C 
BRANCH   4   5
ATOM      5  C   UNL     1      23.213  17.117   4.812  1.00  0.00     0.000 C 
BRANCH   5   6
ATOM      6  C   UNL     1      23.972  18.176   3.989  1.00  0.00     0.000 C 
BRANCH   6   7
ATOM      7  C   UNL     1      25.508  18.100   4.087  1.00  0.00     0.000 C 
BRANCH   7   8
ATOM      8  C   UNL     1      26.057  17.071   5.095  1.00  0.00     0.000 C 
BRANCH   8   9
ATOM      9  C   UNL     1      27.270  16.269   4.578  1.00  0.00     0.000 C 
BRANCH   9  10
ATOM     10  C   UNL     1      28.496  16.388   5.501  1.00  0.00     0.000 C 
BRANCH  10  11
ATOM     11  C   UNL     1      29.832  16.364   4.734  1.00  0.00     0.000 C 
BRANCH  11  12
ATOM     12  C   UNL     1      30.782  15.215   5.115  1.00  0.00     0.006 C 
BRANCH  12  13
ATOM     13  C   UNL     1      32.259  15.550   4.865  1.00  0.00     0.053 C 
BRANCH  13  14
ATOM     14  C   UNL     1      33.153  14.463   5.380  1.00  0.00     0.041 C 
ATOM     15  O   UNL     1      32.890  13.256   5.129  1.00  0.00    -0.550 OA
ATOM     16  O   UNL     1      34.251  14.775   6.175  1.00  0.00    -0.550 OA
ENDBRANCH  13  14
ENDBRANCH  12  13
ENDBRANCH  11  12
ENDBRANCH  10  11
ENDBRANCH   9  10
ENDBRANCH   8   9
ENDBRANCH   7   8
ENDBRANCH   6   7
ENDBRANCH   5   6
ENDBRANCH   4   5
ENDBRANCH   3   4
ENDBRANCH   2   3
ENDBRANCH   1   2
BRANCH   1  17
ATOM     17  C   UNL     1      21.504  21.953   6.329  1.00  0.00     0.000 C 
BRANCH  17  18
ATOM     18  C   UNL     1      20.144  22.657   6.489  1.00  0.00     0.000 C 
BRANCH  18  19
ATOM     19  C   UNL     1      19.049  22.053   5.595  1.00  0.00     0.000 C 
BRANCH  19  20
ATOM     20  C   UNL     1      18.330  20.864   6.253  1.00  0.00     0.000 C 
BRANCH  20  21
ATOM     21  C   UNL     1      17.749  21.180   7.649  1.00  0.00     0.000 C 
BRANCH  21  22
ATOM     22  C   UNL     1      17.472  19.906   8.466  1.00  0.00    -0.000 C 
BRANCH  22  23
ATOM     23  C   UNL     1      17.548  20.164   9.986  1.00  0.00    -0.000 C 
BRANCH  23  24
ATOM     24  C   UNL     1      17.458  21.652  10.367  1.00  0.00    -0.000 C 
BRANCH  24  25
ATOM     25  C   UNL     1      18.689  22.143  11.148  1.00  0.00    -0.000 C 
BRANCH  25  26
ATOM     26  C   UNL     1      19.840  22.595  10.230  1.00  0.00    -0.000 C 
BRANCH  26  27
ATOM     27  C   UNL     1      20.130  24.108  10.239  1.00  0.00    -0.000 C 
BRANCH  27  28
ATOM     28  C   UNL     1      19.554  24.838   9.014  1.00  0.00    -0.000 C 
BRANCH  28  29
ATOM     29  C   UNL     1      18.034  25.047   9.111  1.00  0.00    -0.003 C 
ATOM     30  C   UNL     1      17.303  24.717   7.810  1.00  0.00     0.004 C 
ENDBRANCH  28  29
ENDBRANCH  27  28
ENDBRANCH  26  27
ENDBRANCH  25  26
ENDBRANCH  24  25
ENDBRANCH  23  24
ENDBRANCH  22  23
ENDBRANCH  21  22
ENDBRANCH  20  21
ENDBRANCH  19  20
ENDBRANCH  18  19
ENDBRANCH  17  18
ENDBRANCH   1  17
TORSDOF 26
ENDMDL
MODEL 7
REMARK VINA RESULT:    -4.612      2.581      7.521
REMARK INTER + INTRA:         -15.717
REMARK INTER:                 -11.443
REMARK INTRA:                  -4.274
REMARK UNBOUND:                -4.094
REMARK SMILES CCCCCCCCCCCCCCCCCCCCCCCCCCCC(=O)[O-]
REMARK SMILES IDX 15 1 16 2 17 3 18 4 19 5 20 6 21 7 22 8 23 9 24 10 25 11
REMARK SMILES IDX 26 12 27 13 28 14 29 15 30 16 14 17 13 18 12 19 11 20 10 21
REMARK SMILES IDX 9 22 8 23 7 24 6 25 5 26 4 27 3 28 2 29 1 30
REMARK H PARENT
REMARK Flexibility Score: inf
ROOT
ATOM      1  C   UNL     1      21.727  20.857   6.101  1.00  0.00     0.000 C 
ENDROOT
BRANCH   1   2
ATOM      2  C   UNL     1      20.869  22.001   5.531  1.00  0.00     0.000 C 
BRANCH   2   3
ATOM      3  C   UNL     1      19.924  21.538   4.408  1.00  0.00     0.000 C 
BRANCH   3   4
ATOM      4  C   UNL     1      19.287  20.167   4.688  1.00  0.00     0.000 C 
BRANCH   4   5
ATOM      5  C   UNL     1      17.750  20.200   4.626  1.00  0.00     0.000 C 
BRANCH   5   6
ATOM      6  C   UNL     1      17.105  18.940   5.235  1.00  0.00     0.000 C 
BRANCH   6   7
ATOM      7  C   UNL     1      18.064  18.039   6.037  1.00  0.00     0.000 C 
BRANCH   7   8
ATOM      8  C   UNL     1      17.562  16.604   6.298  1.00  0.00     0.000 C 
BRANCH   8   9
ATOM      9  C   UNL     1      17.794  15.634   5.120  1.00  0.00     0.000 C 
BRANCH   9  10
ATOM     10  C   UNL     1      18.666  16.247   4.009  1.00  0.00     0.000 C 
BRANCH  10  11
ATOM     11  C   UNL     1      20.139  15.808   4.088  1.00  0.00     0.000 C 
BRANCH  11  12
ATOM     12  C   UNL     1      21.161  16.957   4.137  1.00  0.00     0.006 C 
BRANCH  12  13
ATOM     13  C   UNL     1      22.090  16.884   5.357  1.00  0.00     0.053 C 
BRANCH  13  14
ATOM     14  C   UNL     1      21.948  15.572   6.066  1.00  0.00     0.041 C 
ATOM     15  O   UNL     1      22.641  14.581   5.710  1.00  0.00    -0.550 OA
ATOM     16  O   UNL     1      21.018  15.426   7.091  1.00  0.00    -0.550 OA
ENDBRANCH  13  14
ENDBRANCH  12  13
ENDBRANCH  11  12
ENDBRANCH  10  11
ENDBRANCH   9  10
ENDBRANCH   8   9
ENDBRANCH   7   8
ENDBRANCH   6   7
ENDBRANCH   5   6
ENDBRANCH   4   5
ENDBRANCH   3   4
ENDBRANCH   2   3
ENDBRANCH   1   2
BRANCH   1  17
ATOM     17  C   UNL     1      22.074  20.972   7.600  1.00  0.00     0.000 C 
BRANCH  17  18
ATOM     18  C   UNL     1      20.963  21.560   8.489  1.00  0.00     0.000 C 
BRANCH  18  19
ATOM     19  C   UNL     1      21.312  22.954   9.037  1.00  0.00     0.000 C 
BRANCH  19  20
ATOM     20  C   UNL     1      20.880  23.145  10.500  1.00  0.00     0.000 C 
BRANCH  20  21
ATOM     21  C   UNL     1      19.352  23.259  10.690  1.00  0.00     0.000 C 
BRANCH  21  22
ATOM     22  C   UNL     1      18.756  22.016  11.374  1.00  0.00    -0.000 C 
BRANCH  22  23
ATOM     23  C   UNL     1      17.496  21.501  10.645  1.00  0.00    -0.000 C 
BRANCH  23  24
ATOM     24  C   UNL     1      17.798  20.504   9.513  1.00  0.00    -0.000 C 
BRANCH  24  25
ATOM     25  C   UNL     1      17.182  20.923   8.168  1.00  0.00    -0.000 C 
BRANCH  25  26
ATOM     26  C   UNL     1      16.875  22.430   8.094  1.00  0.00    -0.000 C 
BRANCH  26  27
ATOM     27  C   UNL     1      17.944  23.283   7.385  1.00  0.00    -0.000 C 
BRANCH  27  28
ATOM     28  C   UNL     1      17.553  24.767   7.273  1.00  0.00    -0.000 C 
BRANCH  28  29
ATOM     29  C   UNL     1      17.684  25.515   8.609  1.00  0.00    -0.003 C 
ATOM     30  C   UNL     1      18.995  26.292   8.731  1.00  0.00     0.004 C 
ENDBRANCH  28  29
ENDBRANCH  27  28
ENDBRANCH  26  27
ENDBRANCH  25  26
ENDBRANCH  24  25
ENDBRANCH  23  24
ENDBRANCH  22  23
ENDBRANCH  21  22
ENDBRANCH  20  21
ENDBRANCH  19  20
ENDBRANCH  18  19
ENDBRANCH  17  18
ENDBRANCH   1  17
TORSDOF 26
ENDMDL
MODEL 8
REMARK VINA RESULT:    -4.567      2.423      6.760
REMARK INTER + INTRA:         -15.603
REMARK INTER:                 -11.555
REMARK INTRA:                  -4.048
REMARK UNBOUND:                -4.094
REMARK SMILES CCCCCCCCCCCCCCCCCCCCCCCCCCCC(=O)[O-]
REMARK SMILES IDX 15 1 16 2 17 3 18 4 19 5 20 6 21 7 22 8 23 9 24 10 25 11
REMARK SMILES IDX 26 12 27 13 28 14 29 15 30 16 14 17 13 18 12 19 11 20 10 21
REMARK SMILES IDX 9 22 8 23 7 24 6 25 5 26 4 27 3 28 2 29 1 30
REMARK H PARENT
REMARK Flexibility Score: inf
ROOT
ATOM      1  C   UNL     1      20.523  23.598   9.993  1.00  0.00     0.000 C 
ENDROOT
BRANCH   1   2
ATOM      2  C   UNL     1      21.764  22.815   9.527  1.00  0.00     0.000 C 
BRANCH   2   3
ATOM      3  C   UNL     1      21.683  22.390   8.051  1.00  0.00     0.000 C 
BRANCH   3   4
ATOM      4  C   UNL     1      21.670  20.864   7.866  1.00  0.00     0.000 C 
BRANCH   4   5
ATOM      5  C   UNL     1      23.078  20.245   7.911  1.00  0.00     0.000 C 
BRANCH   5   6
ATOM      6  C   UNL     1      23.425  19.468   6.627  1.00  0.00     0.000 C 
BRANCH   6   7
ATOM      7  C   UNL     1      22.380  19.569   5.500  1.00  0.00     0.000 C 
BRANCH   7   8
ATOM      8  C   UNL     1      22.648  18.683   4.266  1.00  0.00     0.000 C 
BRANCH   8   9
ATOM      9  C   UNL     1      21.593  17.579   4.043  1.00  0.00     0.000 C 
BRANCH   9  10
ATOM     10  C   UNL     1      20.235  17.918   4.684  1.00  0.00     0.000 C 
BRANCH  10  11
ATOM     11  C   UNL     1      19.124  16.923   4.301  1.00  0.00     0.000 C 
BRANCH  11  12
ATOM     12  C   UNL     1      18.247  16.443   5.471  1.00  0.00     0.006 C 
BRANCH  12  13
ATOM     13  C   UNL     1      18.947  16.558   6.833  1.00  0.00     0.053 C 
BRANCH  13  14
ATOM     14  C   UNL     1      19.285  15.205   7.382  1.00  0.00     0.041 C 
ATOM     15  O   UNL     1      18.370  14.366   7.604  1.00  0.00    -0.550 OA
ATOM     16  O   UNL     1      20.601  14.884   7.693  1.00  0.00    -0.550 OA
ENDBRANCH  13  14
ENDBRANCH  12  13
ENDBRANCH  11  12
ENDBRANCH  10  11
ENDBRANCH   9  10
ENDBRANCH   8   9
ENDBRANCH   7   8
ENDBRANCH   6   7
ENDBRANCH   5   6
ENDBRANCH   4   5
ENDBRANCH   3   4
ENDBRANCH   2   3
ENDBRANCH   1   2
BRANCH   1  17
ATOM     17  C   UNL     1      19.938  24.587   8.964  1.00  0.00     0.000 C 
BRANCH  17  18
ATOM     18  C   UNL     1      18.639  25.292   9.394  1.00  0.00     0.000 C 
BRANCH  18  19
ATOM     19  C   UNL     1      17.380  24.646   8.791  1.00  0.00     0.000 C 
BRANCH  19  20
ATOM     20  C   UNL     1      17.365  24.686   7.255  1.00  0.00     0.000 C 
BRANCH  20  21
ATOM     21  C   UNL     1      17.415  23.291   6.593  1.00  0.00     0.000 C 
BRANCH  21  22
ATOM     22  C   UNL     1      18.775  23.009   5.931  1.00  0.00    -0.000 C 
BRANCH  22  23
ATOM     23  C   UNL     1      18.871  21.563   5.397  1.00  0.00    -0.000 C 
BRANCH  23  24
ATOM     24  C   UNL     1      17.990  20.560   6.162  1.00  0.00    -0.000 C 
BRANCH  24  25
ATOM     25  C   UNL     1      18.704  19.946   7.378  1.00  0.00    -0.000 C 
BRANCH  25  26
ATOM     26  C   UNL     1      17.793  19.836   8.615  1.00  0.00    -0.000 C 
BRANCH  26  27
ATOM     27  C   UNL     1      16.875  21.048   8.863  1.00  0.00    -0.000 C 
BRANCH  27  28
ATOM     28  C   UNL     1      16.931  21.558  10.314  1.00  0.00    -0.000 C 
BRANCH  28  29
ATOM     29  C   UNL     1      18.261  21.221  11.007  1.00  0.00    -0.003 C 
ATOM     30  C   UNL     1      18.451  21.968  12.327  1.00  0.00     0.004 C 
ENDBRANCH  28  29
ENDBRANCH  27  28
ENDBRANCH  26  27
ENDBRANCH  25  26
ENDBRANCH  24  25
ENDBRANCH  23  24
ENDBRANCH  22  23
ENDBRANCH  21  22
ENDBRANCH  20  21
ENDBRANCH  19  20
ENDBRANCH  18  19
ENDBRANCH  17  18
ENDBRANCH   1  17
TORSDOF 26
ENDMDL
MODEL 9
REMARK VINA RESULT:    -4.491      4.643     11.845
REMARK INTER + INTRA:         -15.411
REMARK INTER:                 -12.673
REMARK INTRA:                  -2.739
REMARK UNBOUND:                -4.094
REMARK SMILES CCCCCCCCCCCCCCCCCCCCCCCCCCCC(=O)[O-]
REMARK SMILES IDX 15 1 16 2 17 3 18 4 19 5 20 6 21 7 22 8 23 9 24 10 25 11
REMARK SMILES IDX 26 12 27 13 28 14 29 15 30 16 14 17 13 18 12 19 11 20 10 21
REMARK SMILES IDX 9 22 8 23 7 24 6 25 5 26 4 27 3 28 2 29 1 30
REMARK H PARENT
REMARK Flexibility Score: inf
ROOT
ATOM      1  C   UNL     1      22.455  19.033   5.808  1.00  0.00     0.000 C 
ENDROOT
BRANCH   1   2
ATOM      2  C   UNL     1      23.989  18.968   5.685  1.00  0.00     0.000 C 
BRANCH   2   3
ATOM      3  C   UNL     1      24.465  18.749   4.239  1.00  0.00     0.000 C 
BRANCH   3   4
ATOM      4  C   UNL     1      25.141  17.385   4.030  1.00  0.00     0.000 C 
BRANCH   4   5
ATOM      5  C   UNL     1      26.265  17.115   5.045  1.00  0.00     0.000 C 
BRANCH   5   6
ATOM      6  C   UNL     1      27.195  15.966   4.608  1.00  0.00     0.000 C 
BRANCH   6   7
ATOM      7  C   UNL     1      28.651  16.378   4.320  1.00  0.00     0.000 C 
BRANCH   7   8
ATOM      8  C   UNL     1      29.692  15.896   5.351  1.00  0.00     0.000 C 
BRANCH   8   9
ATOM      9  C   UNL     1      29.790  14.360   5.474  1.00  0.00     0.000 C 
BRANCH   9  10
ATOM     10  C   UNL     1      31.196  13.828   5.144  1.00  0.00     0.000 C 
BRANCH  10  11
ATOM     11  C   UNL     1      32.135  14.914   4.587  1.00  0.00     0.000 C 
BRANCH  11  12
ATOM     12  C   UNL     1      33.633  14.676   4.848  1.00  0.00     0.006 C 
BRANCH  12  13
ATOM     13  C   UNL     1      33.970  14.541   6.339  1.00  0.00     0.053 C 
BRANCH  13  14
ATOM     14  C   UNL     1      34.866  13.366   6.587  1.00  0.00     0.041 C 
ATOM     15  O   UNL     1      34.415  12.337   7.159  1.00  0.00    -0.550 OA
ATOM     16  O   UNL     1      36.209  13.420   6.229  1.00  0.00    -0.550 OA
ENDBRANCH  13  14
ENDBRANCH  12  13
ENDBRANCH  11  12
ENDBRANCH  10  11
ENDBRANCH   9  10
ENDBRANCH   8   9
ENDBRANCH   7   8
ENDBRANCH   6   7
ENDBRANCH   5   6
ENDBRANCH   4   5
ENDBRANCH   3   4
ENDBRANCH   2   3
ENDBRANCH   1   2
BRANCH   1  17
ATOM     17  C   UNL     1      21.897  20.311   6.467  1.00  0.00     0.000 C 
BRANCH  17  18
ATOM     18  C   UNL     1      21.591  21.470   5.501  1.00  0.00     0.000 C 
BRANCH  18  19
ATOM     19  C   UNL     1      20.137  21.463   5.001  1.00  0.00     0.000 C 
BRANCH  19  20
ATOM     20  C   UNL     1      19.172  20.775   5.980  1.00  0.00     0.000 C 
BRANCH  20  21
ATOM     21  C   UNL     1      17.993  21.668   6.425  1.00  0.00     0.000 C 
BRANCH  21  22
ATOM     22  C   UNL     1      18.310  23.166   6.280  1.00  0.00    -0.000 C 
BRANCH  22  23
ATOM     23  C   UNL     1      17.264  24.052   6.991  1.00  0.00    -0.000 C 
BRANCH  23  24
ATOM     24  C   UNL     1      17.879  25.102   7.934  1.00  0.00    -0.000 C 
BRANCH  24  25
ATOM     25  C   UNL     1      17.173  25.166   9.298  1.00  0.00    -0.000 C 
BRANCH  25  26
ATOM     26  C   UNL     1      18.025  24.586  10.442  1.00  0.00    -0.000 C 
BRANCH  26  27
ATOM     27  C   UNL     1      18.276  23.067  10.366  1.00  0.00    -0.000 C 
BRANCH  27  28
ATOM     28  C   UNL     1      19.758  22.694  10.551  1.00  0.00    -0.000 C 
BRANCH  28  29
ATOM     29  C   UNL     1      20.437  22.302   9.228  1.00  0.00    -0.003 C 
ATOM     30  C   UNL     1      21.179  23.466   8.572  1.00  0.00     0.004 C 
ENDBRANCH  28  29
ENDBRANCH  27  28
ENDBRANCH  26  27
ENDBRANCH  25  26
ENDBRANCH  24  25
ENDBRANCH  23  24
ENDBRANCH  22  23
ENDBRANCH  21  22
ENDBRANCH  20  21
ENDBRANCH  19  20
ENDBRANCH  18  19
ENDBRANCH  17  18
ENDBRANCH   1  17
TORSDOF 26
ENDMDL
