MODEL 1
REMARK VINA RESULT:    47.743      0.000      0.000
REMARK INTER + INTRA:          65.249
REMARK INTER:                  65.885
REMARK INTRA:                  -0.636
REMARK UNBOUND:                -0.636
REMARK SMILES CC[C@@H](CC[C@H](C)[C@@H]1CC[C@H]2[C@@H]3CC=C4C[C@@H](O)CC[C@@]4(C)[C@H]3CC[C@]21C)C(C)C
REMARK SMILES IDX 5 1 4 2 3 3 2 4 1 5 28 6 29 7 30 8 6 9 7 10 8 11 9 12 26 13
REMARK SMILES IDX 10 14 11 15 25 16 27 17 12 18 24 19 23 20 13 21 21 22 14 23
REMARK SMILES IDX 15 24 20 25 22 26 16 27 19 28 17 29 18 30
REMARK H PARENT 18 31
REMARK Flexibility Score: inf
ROOT
ATOM      1  C   UNL     1     -16.707 -39.345  22.406  1.00  0.00     0.004 C 
ENDROOT
BRANCH   1   2
ATOM      2  C   UNL     1     -17.808 -39.474  21.330  1.00  0.00     0.004 C 
BRANCH   2   3
ATOM      3  C   UNL     1     -18.913 -40.500  21.706  1.00  0.00    -0.009 C 
BRANCH   3   4
ATOM      4  C   UNL     1     -18.487 -41.950  21.339  1.00  0.00     0.000 C 
ATOM      5  C   UNL     1     -18.303 -42.912  22.514  1.00  0.00     0.004 C 
ENDBRANCH   3   4
BRANCH   3   6
ATOM      6  C   UNL     1     -20.362 -40.075  21.279  1.00  0.00    -0.014 C 
ATOM      7  C   UNL     1     -21.142 -39.428  22.434  1.00  0.00     0.007 C 
ATOM      8  C   UNL     1     -21.208 -41.176  20.612  1.00  0.00     0.007 C 
ENDBRANCH   3   6
ENDBRANCH   2   3
ENDBRANCH   1   2
BRANCH   1   9
ATOM      9  C   UNL     1     -16.564 -37.902  22.992  1.00  0.00    -0.011 C 
ATOM     10  C   UNL     1     -16.072 -36.979  21.857  1.00  0.00     0.008 C 
BRANCH   9  11
ATOM     11  C   UNL     1     -15.599 -37.838  24.235  1.00  0.00    -0.002 C 
ATOM     12  C   UNL     1     -15.950 -38.854  25.316  1.00  0.00     0.005 C 
ATOM     13  C   UNL     1     -15.469 -36.468  25.011  1.00  0.00    -0.026 C 
ATOM     14  C   UNL     1     -15.164 -38.416  26.525  1.00  0.00     0.005 C 
ATOM     15  C   UNL     1     -15.241 -36.888  26.523  1.00  0.00    -0.001 C 
ATOM     16  C   UNL     1     -14.323 -35.599  24.382  1.00  0.00     0.007 C 
ATOM     17  C   UNL     1     -16.790 -35.647  24.962  1.00  0.00     0.012 C 
ATOM     18  C   UNL     1     -14.051 -36.262  27.338  1.00  0.00     0.000 C 
ATOM     19  C   UNL     1     -13.021 -35.604  25.170  1.00  0.00     0.005 C 
ATOM     20  C   UNL     1     -13.295 -35.145  26.606  1.00  0.00     0.003 C 
ATOM     21  C   UNL     1     -14.530 -35.703  28.685  1.00  0.00     0.031 C 
ATOM     22  C   UNL     1     -12.008 -34.683  27.403  1.00  0.00    -0.008 C 
ATOM     23  C   UNL     1     -13.376 -35.174  29.488  1.00  0.00    -0.027 C 
ATOM     24  C   UNL     1     -12.248 -34.682  28.924  1.00  0.00    -0.065 C 
ATOM     25  C   UNL     1     -10.790 -35.622  27.125  1.00  0.00     0.014 C 
ATOM     26  C   UNL     1     -11.669 -33.236  26.956  1.00  0.00     0.016 C 
ATOM     27  C   UNL     1     -11.067 -34.370  29.820  1.00  0.00     0.063 C 
ATOM     28  C   UNL     1      -9.570 -35.348  28.029  1.00  0.00     0.033 C 
ATOM     29  C   UNL     1      -9.930 -35.355  29.527  1.00  0.00     0.118 C 
BRANCH  29  30
ATOM     30  O   UNL     1     -10.311 -36.645  29.932  1.00  0.00    -0.393 OA
ATOM     31  H   UNL     1      -9.858 -36.819  30.800  1.00  0.00     0.210 HD
ENDBRANCH  29  30
ENDBRANCH   9  11
ENDBRANCH   1   9
TORSDOF 7
ENDMDL
MODEL 2
REMARK VINA RESULT:    48.166      2.330      3.604
REMARK INTER + INTRA:          65.832
REMARK INTER:                  61.024
REMARK INTRA:                   4.809
REMARK UNBOUND:                -0.636
REMARK SMILES CC[C@@H](CC[C@H](C)[C@@H]1CC[C@H]2[C@@H]3CC=C4C[C@@H](O)CC[C@@]4(C)[C@H]3CC[C@]21C)C(C)C
REMARK SMILES IDX 5 1 4 2 3 3 2 4 1 5 28 6 29 7 30 8 6 9 7 10 8 11 9 12 26 13
REMARK SMILES IDX 10 14 11 15 25 16 27 17 12 18 24 19 23 20 13 21 21 22 14 23
REMARK SMILES IDX 15 24 20 25 22 26 16 27 19 28 17 29 18 30
REMARK H PARENT 18 31
REMARK Flexibility Score: inf
ROOT
ATOM      1  C   UNL     1     -17.704 -37.228  23.213  1.00  0.00     0.004 C 
ENDROOT
BRANCH   1   2
ATOM      2  C   UNL     1     -16.430 -38.094  23.084  1.00  0.00     0.004 C 
BRANCH   2   3
ATOM      3  C   UNL     1     -15.215 -37.515  23.860  1.00  0.00    -0.009 C 
BRANCH   3   4
ATOM      4  C   UNL     1     -14.409 -36.515  22.982  1.00  0.00     0.000 C 
ATOM      5  C   UNL     1     -15.176 -35.866  21.829  1.00  0.00     0.004 C 
ENDBRANCH   3   4
BRANCH   3   6
ATOM      6  C   UNL     1     -14.374 -38.587  24.638  1.00  0.00    -0.014 C 
ATOM      7  C   UNL     1     -15.263 -39.625  25.342  1.00  0.00     0.007 C 
ATOM      8  C   UNL     1     -13.327 -38.026  25.619  1.00  0.00     0.007 C 
ENDBRANCH   3   6
ENDBRANCH   2   3
ENDBRANCH   1   2
BRANCH   1   9
ATOM      9  C   UNL     1     -17.979 -36.725  24.668  1.00  0.00    -0.011 C 
ATOM     10  C   UNL     1     -18.448 -35.258  24.579  1.00  0.00     0.008 C 
BRANCH   9  11
ATOM     11  C   UNL     1     -16.726 -36.864  25.612  1.00  0.00    -0.002 C 
ATOM     12  C   UNL     1     -16.958 -37.827  26.772  1.00  0.00     0.005 C 
ATOM     13  C   UNL     1     -16.155 -35.559  26.293  1.00  0.00    -0.026 C 
ATOM     14  C   UNL     1     -15.816 -37.566  27.722  1.00  0.00     0.005 C 
ATOM     15  C   UNL     1     -15.617 -36.048  27.702  1.00  0.00    -0.001 C 
ATOM     16  C   UNL     1     -15.077 -34.894  25.365  1.00  0.00     0.007 C 
ATOM     17  C   UNL     1     -17.273 -34.514  26.573  1.00  0.00     0.012 C 
ATOM     18  C   UNL     1     -14.162 -35.665  28.161  1.00  0.00     0.000 C 
ATOM     19  C   UNL     1     -13.637 -35.151  25.783  1.00  0.00     0.005 C 
ATOM     20  C   UNL     1     -13.438 -34.684  27.230  1.00  0.00     0.003 C 
ATOM     21  C   UNL     1     -14.163 -35.061  29.573  1.00  0.00     0.031 C 
ATOM     22  C   UNL     1     -11.926 -34.479  27.649  1.00  0.00    -0.008 C 
ATOM     23  C   UNL     1     -12.763 -34.767  30.031  1.00  0.00    -0.027 C 
ATOM     24  C   UNL     1     -11.754 -34.472  29.179  1.00  0.00    -0.065 C 
ATOM     25  C   UNL     1     -11.012 -35.614  27.084  1.00  0.00     0.014 C 
ATOM     26  C   UNL     1     -11.463 -33.106  27.094  1.00  0.00     0.016 C 
ATOM     27  C   UNL     1     -10.343 -34.398  29.726  1.00  0.00     0.063 C 
ATOM     28  C   UNL     1      -9.569 -35.585  27.629  1.00  0.00     0.033 C 
ATOM     29  C   UNL     1      -9.518 -35.563  29.169  1.00  0.00     0.118 C 
BRANCH  29  30
ATOM     30  O   UNL     1     -10.003 -36.773  29.691  1.00  0.00    -0.393 OA
ATOM     31  H   UNL     1     -10.351 -36.574  30.601  1.00  0.00     0.210 HD
ENDBRANCH  29  30
ENDBRANCH   9  11
ENDBRANCH   1   9
TORSDOF 7
ENDMDL
MODEL 3
REMARK VINA RESULT:    49.220      1.569      2.968
REMARK INTER + INTRA:          67.287
REMARK INTER:                  68.238
REMARK INTRA:                  -0.950
REMARK UNBOUND:                -0.636
REMARK SMILES CC[C@@H](CC[C@H](C)[C@@H]1CC[C@H]2[C@@H]3CC=C4C[C@@H](O)CC[C@@]4(C)[C@H]3CC[C@]21C)C(C)C
REMARK SMILES IDX 5 1 4 2 3 3 2 4 1 5 28 6 29 7 30 8 6 9 7 10 8 11 9 12 26 13
REMARK SMILES IDX 10 14 11 15 25 16 27 17 12 18 24 19 23 20 13 21 21 22 14 23
REMARK SMILES IDX 15 24 20 25 22 26 16 27 19 28 17 29 18 30
REMARK H PARENT 18 31
REMARK Flexibility Score: inf
ROOT
ATOM      1  C   UNL     1     -17.835 -38.822  21.988  1.00  0.00     0.004 C 
ENDROOT
BRANCH   1   2
ATOM      2  C   UNL     1     -18.714 -40.083  22.158  1.00  0.00     0.004 C 
BRANCH   2   3
ATOM      3  C   UNL     1     -19.829 -40.200  21.083  1.00  0.00    -0.009 C 
BRANCH   3   4
ATOM      4  C   UNL     1     -21.139 -39.502  21.548  1.00  0.00     0.000 C 
ATOM      5  C   UNL     1     -21.335 -39.385  23.061  1.00  0.00     0.004 C 
ENDBRANCH   3   4
BRANCH   3   6
ATOM      6  C   UNL     1     -19.989 -41.636  20.471  1.00  0.00    -0.014 C 
ATOM      7  C   UNL     1     -19.694 -41.662  18.963  1.00  0.00     0.007 C 
ATOM      8  C   UNL     1     -21.328 -42.339  20.768  1.00  0.00     0.007 C 
ENDBRANCH   3   6
ENDBRANCH   2   3
ENDBRANCH   1   2
BRANCH   1   9
ATOM      9  C   UNL     1     -18.005 -37.775  23.136  1.00  0.00    -0.011 C 
ATOM     10  C   UNL     1     -19.120 -36.794  22.717  1.00  0.00     0.008 C 
BRANCH   9  11
ATOM     11  C   UNL     1     -16.670 -37.009  23.470  1.00  0.00    -0.002 C 
ATOM     12  C   UNL     1     -15.677 -37.008  22.311  1.00  0.00     0.005 C 
ATOM     13  C   UNL     1     -15.822 -37.490  24.712  1.00  0.00    -0.026 C 
ATOM     14  C   UNL     1     -14.376 -36.551  22.920  1.00  0.00     0.005 C 
ATOM     15  C   UNL     1     -14.316 -37.227  24.292  1.00  0.00    -0.001 C 
ATOM     16  C   UNL     1     -16.291 -36.739  26.008  1.00  0.00     0.007 C 
ATOM     17  C   UNL     1     -15.965 -39.021  24.953  1.00  0.00     0.012 C 
ATOM     18  C   UNL     1     -13.357 -36.446  25.264  1.00  0.00     0.000 C 
ATOM     19  C   UNL     1     -15.379 -35.604  26.447  1.00  0.00     0.005 C 
ATOM     20  C   UNL     1     -13.957 -36.143  26.643  1.00  0.00     0.003 C 
ATOM     21  C   UNL     1     -12.040 -37.205  25.479  1.00  0.00     0.031 C 
ATOM     22  C   UNL     1     -13.015 -35.206  27.504  1.00  0.00    -0.008 C 
ATOM     23  C   UNL     1     -11.103 -36.418  26.349  1.00  0.00    -0.027 C 
ATOM     24  C   UNL     1     -11.527 -35.539  27.286  1.00  0.00    -0.065 C 
ATOM     25  C   UNL     1     -13.213 -33.699  27.140  1.00  0.00     0.014 C 
ATOM     26  C   UNL     1     -13.357 -35.436  29.000  1.00  0.00     0.016 C 
ATOM     27  C   UNL     1     -10.504 -34.648  27.959  1.00  0.00     0.063 C 
ATOM     28  C   UNL     1     -12.179 -32.758  27.793  1.00  0.00     0.033 C 
ATOM     29  C   UNL     1     -10.726 -33.195  27.524  1.00  0.00     0.118 C 
BRANCH  29  30
ATOM     30  O   UNL     1     -10.422 -33.063  26.159  1.00  0.00    -0.393 OA
ATOM     31  H   UNL     1     -11.283 -32.912  25.686  1.00  0.00     0.210 HD
ENDBRANCH  29  30
ENDBRANCH   9  11
ENDBRANCH   1   9
TORSDOF 7
ENDMDL
