MODEL 1
REMARK VINA RESULT:    66.613      0.000      0.000
REMARK INTER + INTRA:          88.130
REMARK INTER:                  88.031
REMARK INTRA:                   0.099
REMARK UNBOUND:                 0.099
REMARK SMILES CC[C@@H](C=C[C@H](C)[C@H]1CC[C@@H]2[C@H]3CC=C4C[C@H](O)CC[C@@]4(C)[C@@H]3CC[C@@]21C)C(C)C
REMARK SMILES IDX 6 1 7 2 5 3 4 4 3 5 2 6 1 7 28 8 29 9 30 10 8 11 9 12 26 13
REMARK SMILES IDX 10 14 11 15 25 16 27 17 12 18 24 19 23 20 13 21 21 22 14 23
REMARK SMILES IDX 15 24 20 25 22 26 16 27 19 28 17 29 18 30
REMARK H PARENT 18 31
REMARK Flexibility Score: inf
ROOT
ATOM      1  C   UNL     1      20.308  18.030  27.348  1.00  0.00     0.012 C 
ATOM      2  C   UNL     1      19.554  18.826  28.430  1.00  0.00     0.012 C 
ENDROOT
BRANCH   1   3
ATOM      3  C   UNL     1      20.826  16.771  28.014  1.00  0.00    -0.028 C 
ATOM      4  C   UNL     1      20.976  16.691  29.346  1.00  0.00    -0.027 C 
BRANCH   4   5
ATOM      5  C   UNL     1      21.378  15.396  30.023  1.00  0.00     0.014 C 
BRANCH   5   6
ATOM      6  C   UNL     1      21.870  14.403  28.932  1.00  0.00     0.004 C 
ATOM      7  C   UNL     1      23.267  13.851  29.228  1.00  0.00     0.004 C 
ENDBRANCH   5   6
BRANCH   5   8
ATOM      8  C   UNL     1      20.186  14.836  30.862  1.00  0.00    -0.011 C 
ATOM      9  C   UNL     1      19.946  13.339  30.599  1.00  0.00     0.008 C 
ATOM     10  C   UNL     1      20.416  15.044  32.371  1.00  0.00     0.008 C 
ENDBRANCH   5   8
ENDBRANCH   4   5
ENDBRANCH   1   3
BRANCH   1  11
ATOM     11  C   UNL     1      19.422  17.666  26.095  1.00  0.00     0.002 C 
ATOM     12  C   UNL     1      20.148  16.745  25.095  1.00  0.00     0.005 C 
ATOM     13  C   UNL     1      18.112  16.853  26.401  1.00  0.00    -0.026 C 
ATOM     14  C   UNL     1      19.798  15.312  25.480  1.00  0.00     0.005 C 
ATOM     15  C   UNL     1      18.629  15.388  26.482  1.00  0.00    -0.001 C 
ATOM     16  C   UNL     1      17.077  17.074  25.223  1.00  0.00     0.007 C 
ATOM     17  C   UNL     1      17.433  17.255  27.737  1.00  0.00     0.012 C 
ATOM     18  C   UNL     1      17.570  14.251  26.266  1.00  0.00     0.000 C 
ATOM     19  C   UNL     1      16.533  15.789  24.577  1.00  0.00     0.005 C 
ATOM     20  C   UNL     1      16.238  14.740  25.656  1.00  0.00     0.003 C 
ATOM     21  C   UNL     1      17.253  13.492  27.560  1.00  0.00     0.031 C 
ATOM     22  C   UNL     1      15.336  13.529  25.211  1.00  0.00    -0.008 C 
ATOM     23  C   UNL     1      16.208  12.427  27.334  1.00  0.00    -0.027 C 
ATOM     24  C   UNL     1      15.298  12.469  26.329  1.00  0.00    -0.065 C 
ATOM     25  C   UNL     1      13.881  14.044  24.963  1.00  0.00     0.014 C 
ATOM     26  C   UNL     1      15.874  12.874  23.909  1.00  0.00     0.016 C 
ATOM     27  C   UNL     1      14.248  11.379  26.252  1.00  0.00     0.063 C 
ATOM     28  C   UNL     1      12.835  12.924  24.829  1.00  0.00     0.033 C 
ATOM     29  C   UNL     1      12.857  11.998  26.054  1.00  0.00     0.118 C 
BRANCH  29  30
ATOM     30  O   UNL     1      11.879  10.995  25.935  1.00  0.00    -0.393 OA
ATOM     31  H   UNL     1      12.347  10.128  25.819  1.00  0.00     0.210 HD
ENDBRANCH  29  30
ENDBRANCH   1  11
TORSDOF 6
ENDMDL
