MODEL 1
REMARK VINA RESULT:    -5.179      0.000      0.000
REMARK INTER + INTRA:         -13.339
REMARK INTER:                 -11.235
REMARK INTRA:                  -2.104
REMARK UNBOUND:                -2.104
REMARK SMILES CCCCCCCCCCCCCCCCCCCCCC(=O)[O-]
REMARK SMILES IDX 12 1 11 2 10 3 9 4 8 5 7 6 6 7 5 8 4 9 3 10 2 11 1 12 13 13
REMARK SMILES IDX 14 14 15 15 16 16 17 17 18 18 19 19 20 20 21 21 22 22 23 23
REMARK SMILES IDX 24 24
REMARK H PARENT
REMARK Flexibility Score: inf
ROOT
ATOM      1  C   UNL     1       2.993  43.459  71.141  1.00  0.00     0.000 C 
ENDROOT
BRANCH   1   2
ATOM      2  C   UNL     1       2.286  43.334  69.783  1.00  0.00     0.000 C 
BRANCH   2   3
ATOM      3  C   UNL     1       3.224  42.825  68.674  1.00  0.00     0.000 C 
BRANCH   3   4
ATOM      4  C   UNL     1       2.894  43.418  67.291  1.00  0.00    -0.000 C 
BRANCH   4   5
ATOM      5  C   UNL     1       3.507  42.664  66.097  1.00  0.00    -0.000 C 
BRANCH   5   6
ATOM      6  C   UNL     1       3.275  43.380  64.756  1.00  0.00    -0.000 C 
BRANCH   6   7
ATOM      7  C   UNL     1       2.864  44.851  64.936  1.00  0.00    -0.000 C 
BRANCH   7   8
ATOM      8  C   UNL     1       3.987  45.831  64.563  1.00  0.00    -0.000 C 
BRANCH   8   9
ATOM      9  C   UNL     1       4.437  46.644  65.784  1.00  0.00    -0.000 C 
BRANCH   9  10
ATOM     10  C   UNL     1       5.644  47.530  65.440  1.00  0.00    -0.000 C 
BRANCH  10  11
ATOM     11  C   UNL     1       5.244  48.810  64.692  1.00  0.00    -0.003 C 
ATOM     12  C   UNL     1       5.733  50.079  65.390  1.00  0.00     0.004 C 
ENDBRANCH  10  11
ENDBRANCH   9  10
ENDBRANCH   8   9
ENDBRANCH   7   8
ENDBRANCH   6   7
ENDBRANCH   5   6
ENDBRANCH   4   5
ENDBRANCH   3   4
ENDBRANCH   2   3
ENDBRANCH   1   2
BRANCH   1  13
ATOM     13  C   UNL     1       4.526  43.449  71.013  1.00  0.00     0.000 C 
BRANCH  13  14
ATOM     14  C   UNL     1       5.137  44.851  71.172  1.00  0.00     0.000 C 
BRANCH  14  15
ATOM     15  C   UNL     1       5.275  45.588  69.830  1.00  0.00     0.000 C 
BRANCH  15  16
ATOM     16  C   UNL     1       6.314  46.724  69.875  1.00  0.00     0.000 C 
BRANCH  16  17
ATOM     17  C   UNL     1       6.014  47.923  68.952  1.00  0.00     0.000 C 
BRANCH  17  18
ATOM     18  C   UNL     1       7.223  48.822  68.630  1.00  0.00     0.000 C 
BRANCH  18  19
ATOM     19  C   UNL     1       7.391  50.036  69.564  1.00  0.00     0.000 C 
BRANCH  19  20
ATOM     20  C   UNL     1       8.772  50.105  70.254  1.00  0.00     0.006 C 
BRANCH  20  21
ATOM     21  C   UNL     1       9.190  48.793  70.937  1.00  0.00     0.053 C 
BRANCH  21  22
ATOM     22  C   UNL     1      10.508  48.292  70.431  1.00  0.00     0.041 C 
ATOM     23  O   UNL     1      11.503  48.228  71.202  1.00  0.00    -0.550 OA
ATOM     24  O   UNL     1      10.644  47.909  69.102  1.00  0.00    -0.550 OA
ENDBRANCH  21  22
ENDBRANCH  20  21
ENDBRANCH  19  20
ENDBRANCH  18  19
ENDBRANCH  17  18
ENDBRANCH  16  17
ENDBRANCH  15  16
ENDBRANCH  14  15
ENDBRANCH  13  14
ENDBRANCH   1  13
TORSDOF 20
ENDMDL
MODEL 2
REMARK VINA RESULT:    -5.175     11.914     14.288
REMARK INTER + INTRA:         -13.329
REMARK INTER:                  -9.827
REMARK INTRA:                  -3.502
REMARK UNBOUND:                -2.104
REMARK SMILES CCCCCCCCCCCCCCCCCCCCCC(=O)[O-]
REMARK SMILES IDX 12 1 11 2 10 3 9 4 8 5 7 6 6 7 5 8 4 9 3 10 2 11 1 12 13 13
REMARK SMILES IDX 14 14 15 15 16 16 17 17 18 18 19 19 20 20 21 21 22 22 23 23
REMARK SMILES IDX 24 24
REMARK H PARENT
REMARK Flexibility Score: inf
ROOT
ATOM      1  C   UNL     1       6.245  34.793  70.626  1.00  0.00     0.000 C 
ENDROOT
BRANCH   1   2
ATOM      2  C   UNL     1       5.986  33.356  71.103  1.00  0.00     0.000 C 
BRANCH   2   3
ATOM      3  C   UNL     1       7.284  32.610  71.465  1.00  0.00     0.000 C 
BRANCH   3   4
ATOM      4  C   UNL     1       7.370  31.213  70.824  1.00  0.00    -0.000 C 
BRANCH   4   5
ATOM      5  C   UNL     1       6.463  31.002  69.598  1.00  0.00    -0.000 C 
BRANCH   5   6
ATOM      6  C   UNL     1       7.247  30.599  68.337  1.00  0.00    -0.000 C 
BRANCH   6   7
ATOM      7  C   UNL     1       8.565  31.377  68.188  1.00  0.00    -0.000 C 
BRANCH   7   8
ATOM      8  C   UNL     1       8.465  32.522  67.169  1.00  0.00    -0.000 C 
BRANCH   8   9
ATOM      9  C   UNL     1       7.897  33.790  67.819  1.00  0.00    -0.000 C 
BRANCH   9  10
ATOM     10  C   UNL     1       6.799  34.412  66.943  1.00  0.00    -0.000 C 
BRANCH  10  11
ATOM     11  C   UNL     1       5.638  33.442  66.674  1.00  0.00    -0.003 C 
ATOM     12  C   UNL     1       4.433  33.699  67.581  1.00  0.00     0.004 C 
ENDBRANCH  10  11
ENDBRANCH   9  10
ENDBRANCH   8   9
ENDBRANCH   7   8
ENDBRANCH   6   7
ENDBRANCH   5   6
ENDBRANCH   4   5
ENDBRANCH   3   4
ENDBRANCH   2   3
ENDBRANCH   1   2
BRANCH   1  13
ATOM     13  C   UNL     1       4.955  35.626  70.533  1.00  0.00     0.000 C 
BRANCH  13  14
ATOM     14  C   UNL     1       3.971  35.313  71.672  1.00  0.00     0.000 C 
BRANCH  14  15
ATOM     15  C   UNL     1       2.518  35.664  71.308  1.00  0.00     0.000 C 
BRANCH  15  16
ATOM     16  C   UNL     1       2.352  36.064  69.831  1.00  0.00     0.000 C 
BRANCH  16  17
ATOM     17  C   UNL     1       0.893  36.257  69.365  1.00  0.00     0.000 C 
BRANCH  17  18
ATOM     18  C   UNL     1       0.683  36.231  67.839  1.00  0.00     0.000 C 
BRANCH  18  19
ATOM     19  C   UNL     1       0.844  34.845  67.189  1.00  0.00     0.000 C 
BRANCH  19  20
ATOM     20  C   UNL     1       0.132  33.709  67.957  1.00  0.00     0.006 C 
BRANCH  20  21
ATOM     21  C   UNL     1       1.051  32.528  68.310  1.00  0.00     0.053 C 
BRANCH  21  22
ATOM     22  C   UNL     1       1.316  32.445  69.782  1.00  0.00     0.041 C 
ATOM     23  O   UNL     1       0.367  32.543  70.606  1.00  0.00    -0.550 OA
ATOM     24  O   UNL     1       2.614  32.274  70.248  1.00  0.00    -0.550 OA
ENDBRANCH  21  22
ENDBRANCH  20  21
ENDBRANCH  19  20
ENDBRANCH  18  19
ENDBRANCH  17  18
ENDBRANCH  16  17
ENDBRANCH  15  16
ENDBRANCH  14  15
ENDBRANCH  13  14
ENDBRANCH   1  13
TORSDOF 20
ENDMDL
MODEL 3
REMARK VINA RESULT:    -5.127     11.593     14.059
REMARK INTER + INTRA:         -13.226
REMARK INTER:                  -9.852
REMARK INTRA:                  -3.374
REMARK UNBOUND:                -2.104
REMARK SMILES CCCCCCCCCCCCCCCCCCCCCC(=O)[O-]
REMARK SMILES IDX 12 1 11 2 10 3 9 4 8 5 7 6 6 7 5 8 4 9 3 10 2 11 1 12 13 13
REMARK SMILES IDX 14 14 15 15 16 16 17 17 18 18 19 19 20 20 21 21 22 22 23 23
REMARK SMILES IDX 24 24
REMARK H PARENT
REMARK Flexibility Score: inf
ROOT
ATOM      1  C   UNL     1       6.271  35.355  70.194  1.00  0.00     0.000 C 
ENDROOT
BRANCH   1   2
ATOM      2  C   UNL     1       4.850  35.720  70.650  1.00  0.00     0.000 C 
BRANCH   2   3
ATOM      3  C   UNL     1       4.041  34.492  71.103  1.00  0.00     0.000 C 
BRANCH   3   4
ATOM      4  C   UNL     1       2.520  34.713  71.022  1.00  0.00    -0.000 C 
BRANCH   4   5
ATOM      5  C   UNL     1       2.090  36.111  70.539  1.00  0.00    -0.000 C 
BRANCH   5   6
ATOM      6  C   UNL     1       0.919  36.065  69.544  1.00  0.00    -0.000 C 
BRANCH   6   7
ATOM      7  C   UNL     1       1.387  36.095  68.080  1.00  0.00    -0.000 C 
BRANCH   7   8
ATOM      8  C   UNL     1       0.705  35.023  67.217  1.00  0.00    -0.000 C 
BRANCH   8   9
ATOM      9  C   UNL     1       0.443  33.747  68.028  1.00  0.00    -0.000 C 
BRANCH   9  10
ATOM     10  C   UNL     1       1.266  32.570  67.482  1.00  0.00    -0.000 C 
BRANCH  10  11
ATOM     11  C   UNL     1       2.496  32.256  68.347  1.00  0.00    -0.003 C 
ATOM     12  C   UNL     1       3.811  32.598  67.647  1.00  0.00     0.004 C 
ENDBRANCH  10  11
ENDBRANCH   9  10
ENDBRANCH   8   9
ENDBRANCH   7   8
ENDBRANCH   6   7
ENDBRANCH   5   6
ENDBRANCH   4   5
ENDBRANCH   3   4
ENDBRANCH   2   3
ENDBRANCH   1   2
BRANCH   1  13
ATOM     13  C   UNL     1       6.291  34.657  68.823  1.00  0.00     0.000 C 
BRANCH  13  14
ATOM     14  C   UNL     1       7.719  34.442  68.295  1.00  0.00     0.000 C 
BRANCH  14  15
ATOM     15  C   UNL     1       7.793  33.331  67.235  1.00  0.00     0.000 C 
BRANCH  15  16
ATOM     16  C   UNL     1       8.898  32.299  67.527  1.00  0.00     0.000 C 
BRANCH  16  17
ATOM     17  C   UNL     1       8.464  31.105  68.403  1.00  0.00     0.000 C 
BRANCH  17  18
ATOM     18  C   UNL     1       6.942  30.917  68.549  1.00  0.00     0.000 C 
BRANCH  18  19
ATOM     19  C   UNL     1       6.387  31.206  69.956  1.00  0.00     0.000 C 
BRANCH  19  20
ATOM     20  C   UNL     1       7.447  31.736  70.948  1.00  0.00     0.006 C 
BRANCH  20  21
ATOM     21  C   UNL     1       6.855  32.260  72.267  1.00  0.00     0.053 C 
BRANCH  21  22
ATOM     22  C   UNL     1       7.797  32.074  73.417  1.00  0.00     0.041 C 
ATOM     23  O   UNL     1       7.811  30.990  74.059  1.00  0.00    -0.550 OA
ATOM     24  O   UNL     1       8.652  33.104  73.791  1.00  0.00    -0.550 OA
ENDBRANCH  21  22
ENDBRANCH  20  21
ENDBRANCH  19  20
ENDBRANCH  18  19
ENDBRANCH  17  18
ENDBRANCH  16  17
ENDBRANCH  15  16
ENDBRANCH  14  15
ENDBRANCH  13  14
ENDBRANCH   1  13
TORSDOF 20
ENDMDL
MODEL 4
REMARK VINA RESULT:    -5.059     11.579     14.575
REMARK INTER + INTRA:         -13.077
REMARK INTER:                  -9.613
REMARK INTRA:                  -3.465
REMARK UNBOUND:                -2.104
REMARK SMILES CCCCCCCCCCCCCCCCCCCCCC(=O)[O-]
REMARK SMILES IDX 12 1 11 2 10 3 9 4 8 5 7 6 6 7 5 8 4 9 3 10 2 11 1 12 13 13
REMARK SMILES IDX 14 14 15 15 16 16 17 17 18 18 19 19 20 20 21 21 22 22 23 23
REMARK SMILES IDX 24 24
REMARK H PARENT
REMARK Flexibility Score: inf
ROOT
ATOM      1  C   UNL     1       5.525  33.295  66.878  1.00  0.00     0.000 C 
ENDROOT
BRANCH   1   2
ATOM      2  C   UNL     1       6.603  34.380  66.733  1.00  0.00     0.000 C 
BRANCH   2   3
ATOM      3  C   UNL     1       7.285  34.718  68.071  1.00  0.00     0.000 C 
BRANCH   3   4
ATOM      4  C   UNL     1       7.744  33.468  68.843  1.00  0.00    -0.000 C 
BRANCH   4   5
ATOM      5  C   UNL     1       8.655  32.512  68.051  1.00  0.00    -0.000 C 
BRANCH   5   6
ATOM      6  C   UNL     1       8.418  31.033  68.400  1.00  0.00    -0.000 C 
BRANCH   6   7
ATOM      7  C   UNL     1       7.208  30.833  69.328  1.00  0.00    -0.000 C 
BRANCH   7   8
ATOM      8  C   UNL     1       7.617  30.550  70.782  1.00  0.00    -0.000 C 
BRANCH   8   9
ATOM      9  C   UNL     1       6.388  30.491  71.698  1.00  0.00    -0.000 C 
BRANCH   9  10
ATOM     10  C   UNL     1       6.420  31.625  72.736  1.00  0.00    -0.000 C 
BRANCH  10  11
ATOM     11  C   UNL     1       7.616  32.569  72.542  1.00  0.00    -0.003 C 
ATOM     12  C   UNL     1       8.299  32.935  73.860  1.00  0.00     0.004 C 
ENDBRANCH  10  11
ENDBRANCH   9  10
ENDBRANCH   8   9
ENDBRANCH   7   8
ENDBRANCH   6   7
ENDBRANCH   5   6
ENDBRANCH   4   5
ENDBRANCH   3   4
ENDBRANCH   2   3
ENDBRANCH   1   2
BRANCH   1  13
ATOM     13  C   UNL     1       4.155  33.872  67.274  1.00  0.00     0.000 C 
BRANCH  13  14
ATOM     14  C   UNL     1       3.342  32.905  68.150  1.00  0.00     0.000 C 
BRANCH  14  15
ATOM     15  C   UNL     1       4.149  32.379  69.349  1.00  0.00     0.000 C 
BRANCH  15  16
ATOM     16  C   UNL     1       3.927  33.205  70.629  1.00  0.00     0.000 C 
BRANCH  16  17
ATOM     17  C   UNL     1       4.773  34.492  70.732  1.00  0.00     0.000 C 
BRANCH  17  18
ATOM     18  C   UNL     1       3.972  35.808  70.700  1.00  0.00     0.000 C 
BRANCH  18  19
ATOM     19  C   UNL     1       2.503  35.681  71.144  1.00  0.00     0.000 C 
BRANCH  19  20
ATOM     20  C   UNL     1       1.513  35.476  69.975  1.00  0.00     0.006 C 
BRANCH  20  21
ATOM     21  C   UNL     1       1.795  36.375  68.759  1.00  0.00     0.053 C 
BRANCH  21  22
ATOM     22  C   UNL     1       1.033  35.934  67.547  1.00  0.00     0.041 C 
ATOM     23  O   UNL     1       0.322  34.894  67.586  1.00  0.00    -0.550 OA
ATOM     24  O   UNL     1       1.118  36.662  66.367  1.00  0.00    -0.550 OA
ENDBRANCH  21  22
ENDBRANCH  20  21
ENDBRANCH  19  20
ENDBRANCH  18  19
ENDBRANCH  17  18
ENDBRANCH  16  17
ENDBRANCH  15  16
ENDBRANCH  14  15
ENDBRANCH  13  14
ENDBRANCH   1  13
TORSDOF 20
ENDMDL
MODEL 5
REMARK VINA RESULT:    -5.043     11.655     14.231
REMARK INTER + INTRA:         -13.043
REMARK INTER:                  -9.379
REMARK INTRA:                  -3.663
REMARK UNBOUND:                -2.104
REMARK SMILES CCCCCCCCCCCCCCCCCCCCCC(=O)[O-]
REMARK SMILES IDX 12 1 11 2 10 3 9 4 8 5 7 6 6 7 5 8 4 9 3 10 2 11 1 12 13 13
REMARK SMILES IDX 14 14 15 15 16 16 17 17 18 18 19 19 20 20 21 21 22 22 23 23
REMARK SMILES IDX 24 24
REMARK H PARENT
REMARK Flexibility Score: inf
ROOT
ATOM      1  C   UNL     1       6.758  34.249  67.256  1.00  0.00     0.000 C 
ENDROOT
BRANCH   1   2
ATOM      2  C   UNL     1       5.523  34.019  68.140  1.00  0.00     0.000 C 
BRANCH   2   3
ATOM      3  C   UNL     1       4.271  33.651  67.324  1.00  0.00     0.000 C 
BRANCH   3   4
ATOM      4  C   UNL     1       3.342  32.671  68.062  1.00  0.00    -0.000 C 
BRANCH   4   5
ATOM      5  C   UNL     1       1.868  32.711  67.617  1.00  0.00    -0.000 C 
BRANCH   5   6
ATOM      6  C   UNL     1       0.887  32.724  68.802  1.00  0.00    -0.000 C 
BRANCH   6   7
ATOM      7  C   UNL     1       0.214  34.093  68.996  1.00  0.00    -0.000 C 
BRANCH   7   8
ATOM      8  C   UNL     1       0.554  35.085  67.873  1.00  0.00    -0.000 C 
BRANCH   8   9
ATOM      9  C   UNL     1       1.551  36.145  68.360  1.00  0.00    -0.000 C 
BRANCH   9  10
ATOM     10  C   UNL     1       1.726  36.077  69.885  1.00  0.00    -0.000 C 
BRANCH  10  11
ATOM     11  C   UNL     1       3.201  35.989  70.307  1.00  0.00    -0.003 C 
ATOM     12  C   UNL     1       3.488  34.780  71.198  1.00  0.00     0.004 C 
ENDBRANCH  10  11
ENDBRANCH   9  10
ENDBRANCH   8   9
ENDBRANCH   7   8
ENDBRANCH   6   7
ENDBRANCH   5   6
ENDBRANCH   4   5
ENDBRANCH   3   4
ENDBRANCH   2   3
ENDBRANCH   1   2
BRANCH   1  13
ATOM     13  C   UNL     1       8.058  33.755  67.914  1.00  0.00     0.000 C 
BRANCH  13  14
ATOM     14  C   UNL     1       8.611  32.488  67.242  1.00  0.00     0.000 C 
BRANCH  14  15
ATOM     15  C   UNL     1       7.509  31.465  66.918  1.00  0.00     0.000 C 
BRANCH  15  16
ATOM     16  C   UNL     1       7.363  30.381  68.001  1.00  0.00     0.000 C 
BRANCH  16  17
ATOM     17  C   UNL     1       5.982  30.322  68.687  1.00  0.00     0.000 C 
BRANCH  17  18
ATOM     18  C   UNL     1       5.935  30.888  70.118  1.00  0.00     0.000 C 
BRANCH  18  19
ATOM     19  C   UNL     1       7.278  31.428  70.644  1.00  0.00     0.000 C 
BRANCH  19  20
ATOM     20  C   UNL     1       7.176  32.823  71.301  1.00  0.00     0.006 C 
BRANCH  20  21
ATOM     21  C   UNL     1       6.815  32.780  72.795  1.00  0.00     0.053 C 
BRANCH  21  22
ATOM     22  C   UNL     1       7.969  32.331  73.638  1.00  0.00     0.041 C 
ATOM     23  O   UNL     1       8.836  33.161  74.022  1.00  0.00    -0.550 OA
ATOM     24  O   UNL     1       8.097  30.993  73.989  1.00  0.00    -0.550 OA
ENDBRANCH  21  22
ENDBRANCH  20  21
ENDBRANCH  19  20
ENDBRANCH  18  19
ENDBRANCH  17  18
ENDBRANCH  16  17
ENDBRANCH  15  16
ENDBRANCH  14  15
ENDBRANCH  13  14
ENDBRANCH   1  13
TORSDOF 20
ENDMDL
MODEL 6
REMARK VINA RESULT:    -4.942     11.617     14.101
REMARK INTER + INTRA:         -12.824
REMARK INTER:                  -9.266
REMARK INTRA:                  -3.558
REMARK UNBOUND:                -2.104
REMARK SMILES CCCCCCCCCCCCCCCCCCCCCC(=O)[O-]
REMARK SMILES IDX 12 1 11 2 10 3 9 4 8 5 7 6 6 7 5 8 4 9 3 10 2 11 1 12 13 13
REMARK SMILES IDX 14 14 15 15 16 16 17 17 18 18 19 19 20 20 21 21 22 22 23 23
REMARK SMILES IDX 24 24
REMARK H PARENT
REMARK Flexibility Score: inf
ROOT
ATOM      1  C   UNL     1       5.185  32.550  71.381  1.00  0.00     0.000 C 
ENDROOT
BRANCH   1   2
ATOM      2  C   UNL     1       6.627  32.510  70.854  1.00  0.00     0.000 C 
BRANCH   2   3
ATOM      3  C   UNL     1       7.278  33.903  70.803  1.00  0.00     0.000 C 
BRANCH   3   4
ATOM      4  C   UNL     1       6.763  34.762  69.633  1.00  0.00    -0.000 C 
BRANCH   4   5
ATOM      5  C   UNL     1       7.692  34.812  68.405  1.00  0.00    -0.000 C 
BRANCH   5   6
ATOM      6  C   UNL     1       6.963  34.483  67.091  1.00  0.00    -0.000 C 
BRANCH   6   7
ATOM      7  C   UNL     1       5.553  33.917  67.324  1.00  0.00    -0.000 C 
BRANCH   7   8
ATOM      8  C   UNL     1       5.482  32.397  67.111  1.00  0.00    -0.000 C 
BRANCH   8   9
ATOM      9  C   UNL     1       6.855  31.829  66.732  1.00  0.00    -0.000 C 
BRANCH   9  10
ATOM     10  C   UNL     1       7.347  30.826  67.787  1.00  0.00    -0.000 C 
BRANCH  10  11
ATOM     11  C   UNL     1       8.789  31.102  68.238  1.00  0.00    -0.003 C 
ATOM     12  C   UNL     1       9.577  31.929  67.222  1.00  0.00     0.004 C 
ENDBRANCH  10  11
ENDBRANCH   9  10
ENDBRANCH   8   9
ENDBRANCH   7   8
ENDBRANCH   6   7
ENDBRANCH   5   6
ENDBRANCH   4   5
ENDBRANCH   3   4
ENDBRANCH   2   3
ENDBRANCH   1   2
BRANCH   1  13
ATOM     13  C   UNL     1       4.157  32.108  70.324  1.00  0.00     0.000 C 
BRANCH  13  14
ATOM     14  C   UNL     1       2.765  31.861  70.928  1.00  0.00     0.000 C 
BRANCH  14  15
ATOM     15  C   UNL     1       1.630  32.340  70.007  1.00  0.00     0.000 C 
BRANCH  15  16
ATOM     16  C   UNL     1       1.986  32.231  68.513  1.00  0.00     0.000 C 
BRANCH  16  17
ATOM     17  C   UNL     1       1.585  33.448  67.654  1.00  0.00     0.000 C 
BRANCH  17  18
ATOM     18  C   UNL     1       0.207  34.056  67.980  1.00  0.00     0.000 C 
BRANCH  18  19
ATOM     19  C   UNL     1       0.148  35.594  67.915  1.00  0.00     0.000 C 
BRANCH  19  20
ATOM     20  C   UNL     1       1.369  36.292  68.554  1.00  0.00     0.006 C 
BRANCH  20  21
ATOM     21  C   UNL     1       1.345  36.299  70.091  1.00  0.00     0.053 C 
BRANCH  21  22
ATOM     22  C   UNL     1       2.651  35.851  70.674  1.00  0.00     0.041 C 
ATOM     23  O   UNL     1       3.563  35.408  69.926  1.00  0.00    -0.550 OA
ATOM     24  O   UNL     1       2.857  35.909  72.047  1.00  0.00    -0.550 OA
ENDBRANCH  21  22
ENDBRANCH  20  21
ENDBRANCH  19  20
ENDBRANCH  18  19
ENDBRANCH  17  18
ENDBRANCH  16  17
ENDBRANCH  15  16
ENDBRANCH  14  15
ENDBRANCH  13  14
ENDBRANCH   1  13
TORSDOF 20
ENDMDL
MODEL 7
REMARK VINA RESULT:    -4.876     11.790     14.214
REMARK INTER + INTRA:         -12.680
REMARK INTER:                  -8.829
REMARK INTRA:                  -3.851
REMARK UNBOUND:                -2.104
REMARK SMILES CCCCCCCCCCCCCCCCCCCCCC(=O)[O-]
REMARK SMILES IDX 12 1 11 2 10 3 9 4 8 5 7 6 6 7 5 8 4 9 3 10 2 11 1 12 13 13
REMARK SMILES IDX 14 14 15 15 16 16 17 17 18 18 19 19 20 20 21 21 22 22 23 23
REMARK SMILES IDX 24 24
REMARK H PARENT
REMARK Flexibility Score: inf
ROOT
ATOM      1  C   UNL     1       5.045  33.990  67.834  1.00  0.00     0.000 C 
ENDROOT
BRANCH   1   2
ATOM      2  C   UNL     1       4.512  32.557  67.682  1.00  0.00     0.000 C 
BRANCH   2   3
ATOM      3  C   UNL     1       3.780  32.062  68.942  1.00  0.00     0.000 C 
BRANCH   3   4
ATOM      4  C   UNL     1       2.441  31.371  68.624  1.00  0.00    -0.000 C 
BRANCH   4   5
ATOM      5  C   UNL     1       1.684  31.946  67.413  1.00  0.00    -0.000 C 
BRANCH   5   6
ATOM      6  C   UNL     1       0.222  32.299  67.735  1.00  0.00    -0.000 C 
BRANCH   6   7
ATOM      7  C   UNL     1       0.029  33.794  68.037  1.00  0.00    -0.000 C 
BRANCH   7   8
ATOM      8  C   UNL     1       1.000  34.688  67.251  1.00  0.00    -0.000 C 
BRANCH   8   9
ATOM      9  C   UNL     1       1.727  35.665  68.184  1.00  0.00    -0.000 C 
BRANCH   9  10
ATOM     10  C   UNL     1       1.702  35.160  69.636  1.00  0.00    -0.000 C 
BRANCH  10  11
ATOM     11  C   UNL     1       2.298  36.174  70.624  1.00  0.00    -0.003 C 
ATOM     12  C   UNL     1       3.002  35.504  71.805  1.00  0.00     0.004 C 
ENDBRANCH  10  11
ENDBRANCH   9  10
ENDBRANCH   8   9
ENDBRANCH   7   8
ENDBRANCH   6   7
ENDBRANCH   5   6
ENDBRANCH   4   5
ENDBRANCH   3   4
ENDBRANCH   2   3
ENDBRANCH   1   2
BRANCH   1  13
ATOM     13  C   UNL     1       5.273  34.384  69.304  1.00  0.00     0.000 C 
BRANCH  13  14
ATOM     14  C   UNL     1       6.765  34.532  69.646  1.00  0.00     0.000 C 
BRANCH  14  15
ATOM     15  C   UNL     1       7.172  33.700  70.874  1.00  0.00     0.000 C 
BRANCH  15  16
ATOM     16  C   UNL     1       5.962  33.164  71.661  1.00  0.00     0.000 C 
BRANCH  16  17
ATOM     17  C   UNL     1       6.007  31.656  71.984  1.00  0.00     0.000 C 
BRANCH  17  18
ATOM     18  C   UNL     1       7.195  30.889  71.374  1.00  0.00     0.000 C 
BRANCH  18  19
ATOM     19  C   UNL     1       6.927  30.281  69.984  1.00  0.00     0.000 C 
BRANCH  19  20
ATOM     20  C   UNL     1       8.119  30.405  69.008  1.00  0.00     0.006 C 
BRANCH  20  21
ATOM     21  C   UNL     1       7.756  31.064  67.667  1.00  0.00     0.053 C 
BRANCH  21  22
ATOM     22  C   UNL     1       8.749  32.113  67.271  1.00  0.00     0.041 C 
ATOM     23  O   UNL     1       8.416  33.328  67.245  1.00  0.00    -0.550 OA
ATOM     24  O   UNL     1      10.042  31.748  66.915  1.00  0.00    -0.550 OA
ENDBRANCH  21  22
ENDBRANCH  20  21
ENDBRANCH  19  20
ENDBRANCH  18  19
ENDBRANCH  17  18
ENDBRANCH  16  17
ENDBRANCH  15  16
ENDBRANCH  14  15
ENDBRANCH  13  14
ENDBRANCH   1  13
TORSDOF 20
ENDMDL
MODEL 8
REMARK VINA RESULT:    -4.864     11.673     14.806
REMARK INTER + INTRA:         -12.655
REMARK INTER:                  -9.220
REMARK INTRA:                  -3.435
REMARK UNBOUND:                -2.104
REMARK SMILES CCCCCCCCCCCCCCCCCCCCCC(=O)[O-]
REMARK SMILES IDX 12 1 11 2 10 3 9 4 8 5 7 6 6 7 5 8 4 9 3 10 2 11 1 12 13 13
REMARK SMILES IDX 14 14 15 15 16 16 17 17 18 18 19 19 20 20 21 21 22 22 23 23
REMARK SMILES IDX 24 24
REMARK H PARENT
REMARK Flexibility Score: inf
ROOT
ATOM      1  C   UNL     1       8.401  33.527  67.959  1.00  0.00     0.000 C 
ENDROOT
BRANCH   1   2
ATOM      2  C   UNL     1       8.164  32.086  67.482  1.00  0.00     0.000 C 
BRANCH   2   3
ATOM      3  C   UNL     1       8.264  31.061  68.626  1.00  0.00     0.000 C 
BRANCH   3   4
ATOM      4  C   UNL     1       6.981  30.226  68.795  1.00  0.00    -0.000 C 
BRANCH   4   5
ATOM      5  C   UNL     1       6.393  30.217  70.219  1.00  0.00    -0.000 C 
BRANCH   5   6
ATOM      6  C   UNL     1       7.367  30.774  71.271  1.00  0.00    -0.000 C 
BRANCH   6   7
ATOM      7  C   UNL     1       6.762  31.932  72.081  1.00  0.00    -0.000 C 
BRANCH   7   8
ATOM      8  C   UNL     1       6.737  33.254  71.297  1.00  0.00    -0.000 C 
BRANCH   8   9
ATOM      9  C   UNL     1       5.297  33.719  71.048  1.00  0.00    -0.000 C 
BRANCH   9  10
ATOM     10  C   UNL     1       5.262  35.193  70.616  1.00  0.00    -0.000 C 
BRANCH  10  11
ATOM     11  C   UNL     1       3.898  35.852  70.872  1.00  0.00    -0.003 C 
ATOM     12  C   UNL     1       2.840  34.854  71.342  1.00  0.00     0.004 C 
ENDBRANCH  10  11
ENDBRANCH   9  10
ENDBRANCH   8   9
ENDBRANCH   7   8
ENDBRANCH   6   7
ENDBRANCH   5   6
ENDBRANCH   4   5
ENDBRANCH   3   4
ENDBRANCH   2   3
ENDBRANCH   1   2
BRANCH   1  13
ATOM     13  C   UNL     1       7.134  34.395  67.869  1.00  0.00     0.000 C 
BRANCH  13  14
ATOM     14  C   UNL     1       6.154  33.894  66.795  1.00  0.00     0.000 C 
BRANCH  14  15
ATOM     15  C   UNL     1       4.720  33.747  67.329  1.00  0.00     0.000 C 
BRANCH  15  16
ATOM     16  C   UNL     1       4.411  32.325  67.832  1.00  0.00     0.000 C 
BRANCH  16  17
ATOM     17  C   UNL     1       3.005  32.136  68.439  1.00  0.00     0.000 C 
BRANCH  17  18
ATOM     18  C   UNL     1       1.901  31.760  67.432  1.00  0.00     0.000 C 
BRANCH  18  19
ATOM     19  C   UNL     1       0.585  32.544  67.595  1.00  0.00     0.000 C 
BRANCH  19  20
ATOM     20  C   UNL     1       0.654  33.665  68.656  1.00  0.00     0.006 C 
BRANCH  20  21
ATOM     21  C   UNL     1      -0.125  34.933  68.269  1.00  0.00     0.053 C 
BRANCH  21  22
ATOM     22  C   UNL     1       0.765  35.975  67.664  1.00  0.00     0.041 C 
ATOM     23  O   UNL     1       1.587  36.605  68.382  1.00  0.00    -0.550 OA
ATOM     24  O   UNL     1       0.677  36.263  66.307  1.00  0.00    -0.550 OA
ENDBRANCH  21  22
ENDBRANCH  20  21
ENDBRANCH  19  20
ENDBRANCH  18  19
ENDBRANCH  17  18
ENDBRANCH  16  17
ENDBRANCH  15  16
ENDBRANCH  14  15
ENDBRANCH  13  14
ENDBRANCH   1  13
TORSDOF 20
ENDMDL
MODEL 9
REMARK VINA RESULT:    -4.845     11.708     14.447
REMARK INTER + INTRA:         -12.613
REMARK INTER:                  -9.230
REMARK INTRA:                  -3.383
REMARK UNBOUND:                -2.104
REMARK SMILES CCCCCCCCCCCCCCCCCCCCCC(=O)[O-]
REMARK SMILES IDX 12 1 11 2 10 3 9 4 8 5 7 6 6 7 5 8 4 9 3 10 2 11 1 12 13 13
REMARK SMILES IDX 14 14 15 15 16 16 17 17 18 18 19 19 20 20 21 21 22 22 23 23
REMARK SMILES IDX 24 24
REMARK H PARENT
REMARK Flexibility Score: inf
ROOT
ATOM      1  C   UNL     1       7.756  34.753  68.374  1.00  0.00     0.000 C 
ENDROOT
BRANCH   1   2
ATOM      2  C   UNL     1       6.957  34.415  69.641  1.00  0.00     0.000 C 
BRANCH   2   3
ATOM      3  C   UNL     1       5.445  34.306  69.376  1.00  0.00     0.000 C 
BRANCH   3   4
ATOM      4  C   UNL     1       4.599  34.482  70.650  1.00  0.00    -0.000 C 
BRANCH   4   5
ATOM      5  C   UNL     1       4.034  35.899  70.866  1.00  0.00    -0.000 C 
BRANCH   5   6
ATOM      6  C   UNL     1       2.501  35.918  70.992  1.00  0.00    -0.000 C 
BRANCH   6   7
ATOM      7  C   UNL     1       1.803  36.225  69.657  1.00  0.00    -0.000 C 
BRANCH   7   8
ATOM      8  C   UNL     1       0.426  35.552  69.540  1.00  0.00    -0.000 C 
BRANCH   8   9
ATOM      9  C   UNL     1       0.486  34.333  68.611  1.00  0.00    -0.000 C 
BRANCH   9  10
ATOM     10  C   UNL     1       1.694  34.422  67.664  1.00  0.00    -0.000 C 
BRANCH  10  11
ATOM     11  C   UNL     1       2.604  33.188  67.751  1.00  0.00    -0.003 C 
ATOM     12  C   UNL     1       1.897  31.974  68.353  1.00  0.00     0.004 C 
ENDBRANCH  10  11
ENDBRANCH   9  10
ENDBRANCH   8   9
ENDBRANCH   7   8
ENDBRANCH   6   7
ENDBRANCH   5   6
ENDBRANCH   4   5
ENDBRANCH   3   4
ENDBRANCH   2   3
ENDBRANCH   1   2
BRANCH   1  13
ATOM     13  C   UNL     1       7.543  33.725  67.249  1.00  0.00     0.000 C 
BRANCH  13  14
ATOM     14  C   UNL     1       8.466  32.503  67.388  1.00  0.00     0.000 C 
BRANCH  14  15
ATOM     15  C   UNL     1       7.702  31.173  67.275  1.00  0.00     0.000 C 
BRANCH  15  16
ATOM     16  C   UNL     1       6.185  31.334  67.484  1.00  0.00     0.000 C 
BRANCH  16  17
ATOM     17  C   UNL     1       5.543  30.307  68.440  1.00  0.00     0.000 C 
BRANCH  17  18
ATOM     18  C   UNL     1       5.229  30.832  69.854  1.00  0.00     0.000 C 
BRANCH  18  19
ATOM     19  C   UNL     1       6.451  30.952  70.784  1.00  0.00     0.000 C 
BRANCH  19  20
ATOM     20  C   UNL     1       6.088  31.265  72.253  1.00  0.00     0.006 C 
BRANCH  20  21
ATOM     21  C   UNL     1       6.788  32.514  72.813  1.00  0.00     0.053 C 
BRANCH  21  22
ATOM     22  C   UNL     1       8.023  32.164  73.587  1.00  0.00     0.041 C 
ATOM     23  O   UNL     1       8.781  33.073  74.020  1.00  0.00    -0.550 OA
ATOM     24  O   UNL     1       8.346  30.833  73.819  1.00  0.00    -0.550 OA
ENDBRANCH  21  22
ENDBRANCH  20  21
ENDBRANCH  19  20
ENDBRANCH  18  19
ENDBRANCH  17  18
ENDBRANCH  16  17
ENDBRANCH  15  16
ENDBRANCH  14  15
ENDBRANCH  13  14
ENDBRANCH   1  13
TORSDOF 20
ENDMDL
