MODEL 1
REMARK VINA RESULT:    -4.565      0.000      0.000
REMARK INTER + INTRA:          -9.394
REMARK INTER:                  -8.302
REMARK INTRA:                  -1.092
REMARK UNBOUND:                -1.092
REMARK SMILES CCCCCCCCCCCCCCCC(=O)[O-]
REMARK SMILES IDX 9 1 10 2 11 3 12 4 13 5 14 6 15 7 16 8 17 9 18 10 8 11 7 12
REMARK SMILES IDX 6 13 5 14 4 15 3 16 2 17 1 18
REMARK H PARENT
REMARK Flexibility Score: inf
ROOT
ATOM      1  C   UNL     1      15.692  20.979 -11.971  1.00  0.00     0.000 C 
ENDROOT
BRANCH   1   2
ATOM      2  C   UNL     1      16.702  21.737 -12.840  1.00  0.00     0.000 C 
BRANCH   2   3
ATOM      3  C   UNL     1      17.800  20.795 -13.356  1.00  0.00     0.000 C 
BRANCH   3   4
ATOM      4  C   UNL     1      17.319  19.340 -13.479  1.00  0.00     0.000 C 
BRANCH   4   5
ATOM      5  C   UNL     1      18.446  18.377 -13.893  1.00  0.00     0.000 C 
BRANCH   5   6
ATOM      6  C   UNL     1      19.707  18.538 -13.029  1.00  0.00     0.006 C 
BRANCH   6   7
ATOM      7  C   UNL     1      19.855  17.421 -11.987  1.00  0.00     0.053 C 
BRANCH   7   8
ATOM      8  C   UNL     1      19.701  17.973 -10.606  1.00  0.00     0.041 C 
ATOM      9  O   UNL     1      18.777  18.788 -10.348  1.00  0.00    -0.550 OA
ATOM     10  O   UNL     1      20.609  17.625  -9.612  1.00  0.00    -0.550 OA
ENDBRANCH   7   8
ENDBRANCH   6   7
ENDBRANCH   5   6
ENDBRANCH   4   5
ENDBRANCH   3   4
ENDBRANCH   2   3
ENDBRANCH   1   2
BRANCH   1  11
ATOM     11  C   UNL     1      14.297  21.608 -12.070  1.00  0.00     0.000 C 
BRANCH  11  12
ATOM     12  C   UNL     1      14.390  23.117 -12.337  1.00  0.00    -0.000 C 
BRANCH  12  13
ATOM     13  C   UNL     1      13.149  23.680 -13.054  1.00  0.00    -0.000 C 
BRANCH  13  14
ATOM     14  C   UNL     1      11.918  22.757 -13.060  1.00  0.00    -0.000 C 
BRANCH  14  15
ATOM     15  C   UNL     1      10.858  23.163 -12.021  1.00  0.00    -0.000 C 
BRANCH  15  16
ATOM     16  C   UNL     1      11.190  24.490 -11.314  1.00  0.00    -0.000 C 
BRANCH  16  17
ATOM     17  C   UNL     1      10.112  25.582 -11.438  1.00  0.00    -0.003 C 
ATOM     18  C   UNL     1       8.885  25.127 -12.227  1.00  0.00     0.004 C 
ENDBRANCH  16  17
ENDBRANCH  15  16
ENDBRANCH  14  15
ENDBRANCH  13  14
ENDBRANCH  12  13
ENDBRANCH  11  12
ENDBRANCH   1  11
TORSDOF 14
ENDMDL
MODEL 2
REMARK VINA RESULT:    -4.436      3.188      8.461
REMARK INTER + INTRA:          -9.158
REMARK INTER:                  -7.752
REMARK INTRA:                  -1.407
REMARK UNBOUND:                -1.092
REMARK SMILES CCCCCCCCCCCCCCCC(=O)[O-]
REMARK SMILES IDX 9 1 10 2 11 3 12 4 13 5 14 6 15 7 16 8 17 9 18 10 8 11 7 12
REMARK SMILES IDX 6 13 5 14 4 15 3 16 2 17 1 18
REMARK H PARENT
REMARK Flexibility Score: inf
ROOT
ATOM      1  C   UNL     1      15.094  22.979 -12.595  1.00  0.00     0.000 C 
ENDROOT
BRANCH   1   2
ATOM      2  C   UNL     1      13.873  23.446 -13.395  1.00  0.00     0.000 C 
BRANCH   2   3
ATOM      3  C   UNL     1      12.745  22.404 -13.335  1.00  0.00     0.000 C 
BRANCH   3   4
ATOM      4  C   UNL     1      11.357  23.046 -13.170  1.00  0.00     0.000 C 
BRANCH   4   5
ATOM      5  C   UNL     1      10.961  23.227 -11.694  1.00  0.00     0.000 C 
BRANCH   5   6
ATOM      6  C   UNL     1      10.600  24.682 -11.355  1.00  0.00     0.006 C 
BRANCH   6   7
ATOM      7  C   UNL     1      11.799  25.631 -11.475  1.00  0.00     0.053 C 
BRANCH   7   8
ATOM      8  C   UNL     1      12.651  25.552 -10.249  1.00  0.00     0.041 C 
ATOM      9  O   UNL     1      13.880  25.298 -10.346  1.00  0.00    -0.550 OA
ATOM     10  O   UNL     1      12.079  25.711  -8.992  1.00  0.00    -0.550 OA
ENDBRANCH   7   8
ENDBRANCH   6   7
ENDBRANCH   5   6
ENDBRANCH   4   5
ENDBRANCH   3   4
ENDBRANCH   2   3
ENDBRANCH   1   2
BRANCH   1  11
ATOM     11  C   UNL     1      14.864  21.583 -12.002  1.00  0.00     0.000 C 
BRANCH  11  12
ATOM     12  C   UNL     1      16.118  20.709 -12.145  1.00  0.00    -0.000 C 
BRANCH  12  13
ATOM     13  C   UNL     1      17.247  21.397 -12.933  1.00  0.00    -0.000 C 
BRANCH  13  14
ATOM     14  C   UNL     1      18.213  20.448 -13.664  1.00  0.00    -0.000 C 
BRANCH  14  15
ATOM     15  C   UNL     1      17.712  18.993 -13.699  1.00  0.00    -0.000 C 
BRANCH  15  16
ATOM     16  C   UNL     1      18.818  17.971 -13.375  1.00  0.00    -0.000 C 
BRANCH  16  17
ATOM     17  C   UNL     1      19.693  18.321 -12.158  1.00  0.00    -0.003 C 
ATOM     18  C   UNL     1      18.917  18.328 -10.842  1.00  0.00     0.004 C 
ENDBRANCH  16  17
ENDBRANCH  15  16
ENDBRANCH  14  15
ENDBRANCH  13  14
ENDBRANCH  12  13
ENDBRANCH  11  12
ENDBRANCH   1  11
TORSDOF 14
ENDMDL
MODEL 3
REMARK VINA RESULT:    -4.435     10.746     13.251
REMARK INTER + INTRA:          -9.158
REMARK INTER:                  -7.187
REMARK INTRA:                  -1.971
REMARK UNBOUND:                -1.092
REMARK SMILES CCCCCCCCCCCCCCCC(=O)[O-]
REMARK SMILES IDX 9 1 10 2 11 3 12 4 13 5 14 6 15 7 16 8 17 9 18 10 8 11 7 12
REMARK SMILES IDX 6 13 5 14 4 15 3 16 2 17 1 18
REMARK H PARENT
REMARK Flexibility Score: inf
ROOT
ATOM      1  C   UNL     1       8.732  14.624  -9.984  1.00  0.00     0.000 C 
ENDROOT
BRANCH   1   2
ATOM      2  C   UNL     1       7.407  15.354  -9.732  1.00  0.00     0.000 C 
BRANCH   2   3
ATOM      3  C   UNL     1       6.281  14.356  -9.424  1.00  0.00     0.000 C 
BRANCH   3   4
ATOM      4  C   UNL     1       4.998  15.047  -8.933  1.00  0.00     0.000 C 
BRANCH   4   5
ATOM      5  C   UNL     1       4.854  15.008  -7.401  1.00  0.00     0.000 C 
BRANCH   5   6
ATOM      6  C   UNL     1       4.301  16.322  -6.827  1.00  0.00     0.006 C 
BRANCH   6   7
ATOM      7  C   UNL     1       5.085  17.551  -7.307  1.00  0.00     0.053 C 
BRANCH   7   8
ATOM      8  C   UNL     1       6.334  17.720  -6.503  1.00  0.00     0.041 C 
ATOM      9  O   UNL     1       6.278  18.183  -5.334  1.00  0.00    -0.550 OA
ATOM     10  O   UNL     1       7.568  17.411  -7.063  1.00  0.00    -0.550 OA
ENDBRANCH   7   8
ENDBRANCH   6   7
ENDBRANCH   5   6
ENDBRANCH   4   5
ENDBRANCH   3   4
ENDBRANCH   2   3
ENDBRANCH   1   2
BRANCH   1  11
ATOM     11  C   UNL     1       8.519  13.379 -10.853  1.00  0.00     0.000 C 
BRANCH  11  12
ATOM     12  C   UNL     1       9.830  12.599 -11.030  1.00  0.00    -0.000 C 
BRANCH  12  13
ATOM     13  C   UNL     1      10.999  13.193 -10.226  1.00  0.00    -0.000 C 
BRANCH  13  14
ATOM     14  C   UNL     1      11.670  12.230  -9.230  1.00  0.00    -0.000 C 
BRANCH  14  15
ATOM     15  C   UNL     1      10.676  11.253  -8.578  1.00  0.00    -0.000 C 
BRANCH  15  16
ATOM     16  C   UNL     1      10.059  11.803  -7.279  1.00  0.00    -0.000 C 
BRANCH  16  17
ATOM     17  C   UNL     1       8.543  12.062  -7.336  1.00  0.00    -0.003 C 
ATOM     18  C   UNL     1       7.772  10.962  -8.064  1.00  0.00     0.004 C 
ENDBRANCH  16  17
ENDBRANCH  15  16
ENDBRANCH  14  15
ENDBRANCH  13  14
ENDBRANCH  12  13
ENDBRANCH  11  12
ENDBRANCH   1  11
TORSDOF 14
ENDMDL
MODEL 4
REMARK VINA RESULT:    -4.383      3.616      9.027
REMARK INTER + INTRA:          -9.063
REMARK INTER:                  -8.108
REMARK INTRA:                  -0.954
REMARK UNBOUND:                -1.092
REMARK SMILES CCCCCCCCCCCCCCCC(=O)[O-]
REMARK SMILES IDX 9 1 10 2 11 3 12 4 13 5 14 6 15 7 16 8 17 9 18 10 8 11 7 12
REMARK SMILES IDX 6 13 5 14 4 15 3 16 2 17 1 18
REMARK H PARENT
REMARK Flexibility Score: inf
ROOT
ATOM      1  C   UNL     1      16.134  20.570 -12.128  1.00  0.00     0.000 C 
ENDROOT
BRANCH   1   2
ATOM      2  C   UNL     1      15.127  21.725 -12.126  1.00  0.00     0.000 C 
BRANCH   2   3
ATOM      3  C   UNL     1      15.647  22.910 -12.954  1.00  0.00     0.000 C 
BRANCH   3   4
ATOM      4  C   UNL     1      14.672  23.327 -14.066  1.00  0.00     0.000 C 
BRANCH   4   5
ATOM      5  C   UNL     1      13.442  24.077 -13.525  1.00  0.00     0.000 C 
BRANCH   5   6
ATOM      6  C   UNL     1      12.168  23.216 -13.548  1.00  0.00     0.006 C 
BRANCH   6   7
ATOM      7  C   UNL     1      11.574  23.005 -12.150  1.00  0.00     0.053 C 
BRANCH   7   8
ATOM      8  C   UNL     1      11.116  24.308 -11.576  1.00  0.00     0.041 C 
ATOM      9  O   UNL     1      10.094  24.880 -12.037  1.00  0.00    -0.550 OA
ATOM     10  O   UNL     1      11.847  24.918 -10.563  1.00  0.00    -0.550 OA
ENDBRANCH   7   8
ENDBRANCH   6   7
ENDBRANCH   5   6
ENDBRANCH   4   5
ENDBRANCH   3   4
ENDBRANCH   2   3
ENDBRANCH   1   2
BRANCH   1  11
ATOM     11  C   UNL     1      17.337  20.889 -13.025  1.00  0.00     0.000 C 
BRANCH  11  12
ATOM     12  C   UNL     1      17.728  19.673 -13.877  1.00  0.00    -0.000 C 
BRANCH  12  13
ATOM     13  C   UNL     1      19.074  19.052 -13.461  1.00  0.00    -0.000 C 
BRANCH  13  14
ATOM     14  C   UNL     1      18.973  17.793 -12.580  1.00  0.00    -0.000 C 
BRANCH  14  15
ATOM     15  C   UNL     1      18.860  18.117 -11.080  1.00  0.00    -0.000 C 
BRANCH  15  16
ATOM     16  C   UNL     1      20.223  18.114 -10.362  1.00  0.00    -0.000 C 
BRANCH  16  17
ATOM     17  C   UNL     1      20.911  16.741 -10.276  1.00  0.00    -0.003 C 
ATOM     18  C   UNL     1      22.372  16.828  -9.836  1.00  0.00     0.004 C 
ENDBRANCH  16  17
ENDBRANCH  15  16
ENDBRANCH  14  15
ENDBRANCH  13  14
ENDBRANCH  12  13
ENDBRANCH  11  12
ENDBRANCH   1  11
TORSDOF 14
ENDMDL
MODEL 5
REMARK VINA RESULT:    -4.326      1.452      2.234
REMARK INTER + INTRA:          -8.959
REMARK INTER:                  -7.586
REMARK INTRA:                  -1.373
REMARK UNBOUND:                -1.092
REMARK SMILES CCCCCCCCCCCCCCCC(=O)[O-]
REMARK SMILES IDX 9 1 10 2 11 3 12 4 13 5 14 6 15 7 16 8 17 9 18 10 8 11 7 12
REMARK SMILES IDX 6 13 5 14 4 15 3 16 2 17 1 18
REMARK H PARENT
REMARK Flexibility Score: inf
ROOT
ATOM      1  C   UNL     1      14.274  21.918 -12.120  1.00  0.00     0.000 C 
ENDROOT
BRANCH   1   2
ATOM      2  C   UNL     1      15.430  22.761 -12.672  1.00  0.00     0.000 C 
BRANCH   2   3
ATOM      3  C   UNL     1      16.639  21.877 -13.016  1.00  0.00     0.000 C 
BRANCH   3   4
ATOM      4  C   UNL     1      16.608  20.524 -12.287  1.00  0.00     0.000 C 
BRANCH   4   5
ATOM      5  C   UNL     1      17.250  19.394 -13.109  1.00  0.00     0.000 C 
BRANCH   5   6
ATOM      6  C   UNL     1      18.698  19.102 -12.682  1.00  0.00     0.006 C 
BRANCH   6   7
ATOM      7  C   UNL     1      18.802  18.653 -11.219  1.00  0.00     0.053 C 
BRANCH   7   8
ATOM      8  C   UNL     1      20.073  17.899 -10.994  1.00  0.00     0.041 C 
ATOM      9  O   UNL     1      20.800  17.576 -11.970  1.00  0.00    -0.550 OA
ATOM     10  O   UNL     1      20.433  17.509  -9.710  1.00  0.00    -0.550 OA
ENDBRANCH   7   8
ENDBRANCH   6   7
ENDBRANCH   5   6
ENDBRANCH   4   5
ENDBRANCH   3   4
ENDBRANCH   2   3
ENDBRANCH   1   2
BRANCH   1  11
ATOM     11  C   UNL     1      12.935  22.354 -12.726  1.00  0.00     0.000 C 
BRANCH  11  12
ATOM     12  C   UNL     1      13.147  23.346 -13.878  1.00  0.00    -0.000 C 
BRANCH  12  13
ATOM     13  C   UNL     1      11.939  24.272 -14.108  1.00  0.00    -0.000 C 
BRANCH  13  14
ATOM     14  C   UNL     1      11.006  24.449 -12.895  1.00  0.00    -0.000 C 
BRANCH  14  15
ATOM     15  C   UNL     1      11.341  25.696 -12.058  1.00  0.00    -0.000 C 
BRANCH  15  16
ATOM     16  C   UNL     1      11.660  25.363 -10.589  1.00  0.00    -0.000 C 
BRANCH  16  17
ATOM     17  C   UNL     1      12.972  25.964 -10.054  1.00  0.00    -0.003 C 
ATOM     18  C   UNL     1      14.186  25.617 -10.916  1.00  0.00     0.004 C 
ENDBRANCH  16  17
ENDBRANCH  15  16
ENDBRANCH  14  15
ENDBRANCH  13  14
ENDBRANCH  12  13
ENDBRANCH  11  12
ENDBRANCH   1  11
TORSDOF 14
ENDMDL
MODEL 6
REMARK VINA RESULT:    -4.321      4.370      9.788
REMARK INTER + INTRA:          -8.950
REMARK INTER:                  -7.223
REMARK INTRA:                  -1.727
REMARK UNBOUND:                -1.092
REMARK SMILES CCCCCCCCCCCCCCCC(=O)[O-]
REMARK SMILES IDX 9 1 10 2 11 3 12 4 13 5 14 6 15 7 16 8 17 9 18 10 8 11 7 12
REMARK SMILES IDX 6 13 5 14 4 15 3 16 2 17 1 18
REMARK H PARENT
REMARK Flexibility Score: inf
ROOT
ATOM      1  C   UNL     1      20.979  17.777  -9.998  1.00  0.00     0.000 C 
ENDROOT
BRANCH   1   2
ATOM      2  C   UNL     1      19.763  18.029 -10.896  1.00  0.00     0.000 C 
BRANCH   2   3
ATOM      3  C   UNL     1      19.446  16.794 -11.752  1.00  0.00     0.000 C 
BRANCH   3   4
ATOM      4  C   UNL     1      19.170  17.149 -13.222  1.00  0.00     0.000 C 
BRANCH   4   5
ATOM      5  C   UNL     1      19.326  18.653 -13.507  1.00  0.00     0.000 C 
BRANCH   5   6
ATOM      6  C   UNL     1      18.021  19.300 -13.996  1.00  0.00     0.006 C 
BRANCH   6   7
ATOM      7  C   UNL     1      17.747  20.654 -13.328  1.00  0.00     0.053 C 
BRANCH   7   8
ATOM      8  C   UNL     1      16.669  20.519 -12.300  1.00  0.00     0.041 C 
ATOM      9  O   UNL     1      16.675  19.548 -11.499  1.00  0.00    -0.550 OA
ATOM     10  O   UNL     1      15.630  21.441 -12.257  1.00  0.00    -0.550 OA
ENDBRANCH   7   8
ENDBRANCH   6   7
ENDBRANCH   5   6
ENDBRANCH   4   5
ENDBRANCH   3   4
ENDBRANCH   2   3
ENDBRANCH   1   2
BRANCH   1  11
ATOM     11  C   UNL     1      22.179  17.287 -10.818  1.00  0.00     0.000 C 
BRANCH  11  12
ATOM     12  C   UNL     1      22.879  16.110 -10.123  1.00  0.00    -0.000 C 
BRANCH  12  13
ATOM     13  C   UNL     1      22.339  15.836  -8.708  1.00  0.00    -0.000 C 
BRANCH  13  14
ATOM     14  C   UNL     1      22.440  14.374  -8.237  1.00  0.00    -0.000 C 
BRANCH  14  15
ATOM     15  C   UNL     1      21.066  13.713  -8.032  1.00  0.00    -0.000 C 
BRANCH  15  16
ATOM     16  C   UNL     1      20.220  13.677  -9.318  1.00  0.00    -0.000 C 
BRANCH  16  17
ATOM     17  C   UNL     1      20.912  13.042 -10.537  1.00  0.00    -0.003 C 
ATOM     18  C   UNL     1      20.109  13.188 -11.828  1.00  0.00     0.004 C 
ENDBRANCH  16  17
ENDBRANCH  15  16
ENDBRANCH  14  15
ENDBRANCH  13  14
ENDBRANCH  12  13
ENDBRANCH  11  12
ENDBRANCH   1  11
TORSDOF 14
ENDMDL
MODEL 7
REMARK VINA RESULT:    -4.269      1.454      2.777
REMARK INTER + INTRA:          -8.855
REMARK INTER:                  -7.847
REMARK INTRA:                  -1.008
REMARK UNBOUND:                -1.092
REMARK SMILES CCCCCCCCCCCCCCCC(=O)[O-]
REMARK SMILES IDX 9 1 10 2 11 3 12 4 13 5 14 6 15 7 16 8 17 9 18 10 8 11 7 12
REMARK SMILES IDX 6 13 5 14 4 15 3 16 2 17 1 18
REMARK H PARENT
REMARK Flexibility Score: inf
ROOT
ATOM      1  C   UNL     1      17.843  20.693 -13.370  1.00  0.00     0.000 C 
ENDROOT
BRANCH   1   2
ATOM      2  C   UNL     1      17.813  19.345 -12.640  1.00  0.00     0.000 C 
BRANCH   2   3
ATOM      3  C   UNL     1      18.597  18.280 -13.421  1.00  0.00     0.000 C 
BRANCH   3   4
ATOM      4  C   UNL     1      19.970  18.785 -13.892  1.00  0.00     0.000 C 
BRANCH   4   5
ATOM      5  C   UNL     1      21.119  17.847 -13.480  1.00  0.00     0.000 C 
BRANCH   5   6
ATOM      6  C   UNL     1      20.680  16.794 -12.450  1.00  0.00     0.006 C 
BRANCH   6   7
ATOM      7  C   UNL     1      21.658  16.676 -11.274  1.00  0.00     0.053 C 
BRANCH   7   8
ATOM      8  C   UNL     1      21.011  17.145 -10.010  1.00  0.00     0.041 C 
ATOM      9  O   UNL     1      21.479  16.800  -8.893  1.00  0.00    -0.550 OA
ATOM     10  O   UNL     1      19.862  17.925 -10.063  1.00  0.00    -0.550 OA
ENDBRANCH   7   8
ENDBRANCH   6   7
ENDBRANCH   5   6
ENDBRANCH   4   5
ENDBRANCH   3   4
ENDBRANCH   2   3
ENDBRANCH   1   2
BRANCH   1  11
ATOM     11  C   UNL     1      16.639  21.559 -12.979  1.00  0.00     0.000 C 
BRANCH  11  12
ATOM     12  C   UNL     1      15.761  20.847 -11.940  1.00  0.00    -0.000 C 
BRANCH  12  13
ATOM     13  C   UNL     1      14.296  21.321 -11.963  1.00  0.00    -0.000 C 
BRANCH  13  14
ATOM     14  C   UNL     1      14.069  22.729 -12.543  1.00  0.00    -0.000 C 
BRANCH  14  15
ATOM     15  C   UNL     1      12.627  23.231 -12.351  1.00  0.00    -0.000 C 
BRANCH  15  16
ATOM     16  C   UNL     1      12.554  24.738 -12.041  1.00  0.00    -0.000 C 
BRANCH  16  17
ATOM     17  C   UNL     1      13.902  25.401 -11.709  1.00  0.00    -0.003 C 
ATOM     18  C   UNL     1      14.030  25.800 -10.239  1.00  0.00     0.004 C 
ENDBRANCH  16  17
ENDBRANCH  15  16
ENDBRANCH  14  15
ENDBRANCH  13  14
ENDBRANCH  12  13
ENDBRANCH  11  12
ENDBRANCH   1  11
TORSDOF 14
ENDMDL
MODEL 8
REMARK VINA RESULT:    -4.216     10.423     13.311
REMARK INTER + INTRA:          -8.759
REMARK INTER:                  -7.215
REMARK INTRA:                  -1.544
REMARK UNBOUND:                -1.092
REMARK SMILES CCCCCCCCCCCCCCCC(=O)[O-]
REMARK SMILES IDX 9 1 10 2 11 3 12 4 13 5 14 6 15 7 16 8 17 9 18 10 8 11 7 12
REMARK SMILES IDX 6 13 5 14 4 15 3 16 2 17 1 18
REMARK H PARENT
REMARK Flexibility Score: inf
ROOT
ATOM      1  C   UNL     1       8.694  14.574 -10.304  1.00  0.00     0.000 C 
ENDROOT
BRANCH   1   2
ATOM      2  C   UNL     1       7.967  15.191  -9.104  1.00  0.00     0.000 C 
BRANCH   2   3
ATOM      3  C   UNL     1       6.444  15.165  -9.312  1.00  0.00     0.000 C 
BRANCH   3   4
ATOM      4  C   UNL     1       5.721  14.299  -8.267  1.00  0.00     0.000 C 
BRANCH   4   5
ATOM      5  C   UNL     1       4.608  15.066  -7.531  1.00  0.00     0.000 C 
BRANCH   5   6
ATOM      6  C   UNL     1       4.787  16.591  -7.616  1.00  0.00     0.006 C 
BRANCH   6   7
ATOM      7  C   UNL     1       4.668  17.276  -6.248  1.00  0.00     0.053 C 
BRANCH   7   8
ATOM      8  C   UNL     1       6.021  17.651  -5.734  1.00  0.00     0.041 C 
ATOM      9  O   UNL     1       6.139  18.541  -4.852  1.00  0.00    -0.550 OA
ATOM     10  O   UNL     1       7.158  17.052  -6.263  1.00  0.00    -0.550 OA
ENDBRANCH   7   8
ENDBRANCH   6   7
ENDBRANCH   5   6
ENDBRANCH   4   5
ENDBRANCH   3   4
ENDBRANCH   2   3
ENDBRANCH   1   2
BRANCH   1  11
ATOM     11  C   UNL     1       8.822  13.054 -10.150  1.00  0.00     0.000 C 
BRANCH  11  12
ATOM     12  C   UNL     1       9.341  12.682  -8.753  1.00  0.00    -0.000 C 
BRANCH  12  13
ATOM     13  C   UNL     1      10.012  11.298  -8.708  1.00  0.00    -0.000 C 
BRANCH  13  14
ATOM     14  C   UNL     1      11.453  11.283  -8.168  1.00  0.00    -0.000 C 
BRANCH  14  15
ATOM     15  C   UNL     1      12.327  12.403  -8.759  1.00  0.00    -0.000 C 
BRANCH  15  16
ATOM     16  C   UNL     1      12.976  12.013 -10.100  1.00  0.00    -0.000 C 
BRANCH  16  17
ATOM     17  C   UNL     1      12.313  12.623 -11.347  1.00  0.00    -0.003 C 
ATOM     18  C   UNL     1      11.530  11.601 -12.171  1.00  0.00     0.004 C 
ENDBRANCH  16  17
ENDBRANCH  15  16
ENDBRANCH  14  15
ENDBRANCH  13  14
ENDBRANCH  12  13
ENDBRANCH  11  12
ENDBRANCH   1  11
TORSDOF 14
ENDMDL
MODEL 9
REMARK VINA RESULT:    -4.210      2.249      4.500
REMARK INTER + INTRA:          -8.748
REMARK INTER:                  -7.862
REMARK INTRA:                  -0.886
REMARK UNBOUND:                -1.092
REMARK SMILES CCCCCCCCCCCCCCCC(=O)[O-]
REMARK SMILES IDX 9 1 10 2 11 3 12 4 13 5 14 6 15 7 16 8 17 9 18 10 8 11 7 12
REMARK SMILES IDX 6 13 5 14 4 15 3 16 2 17 1 18
REMARK H PARENT
REMARK Flexibility Score: inf
ROOT
ATOM      1  C   UNL     1      19.475  19.128 -14.125  1.00  0.00     0.000 C 
ENDROOT
BRANCH   1   2
ATOM      2  C   UNL     1      19.096  17.905 -13.283  1.00  0.00     0.000 C 
BRANCH   2   3
ATOM      3  C   UNL     1      20.241  17.513 -12.336  1.00  0.00     0.000 C 
BRANCH   3   4
ATOM      4  C   UNL     1      20.105  18.159 -10.947  1.00  0.00     0.000 C 
BRANCH   4   5
ATOM      5  C   UNL     1      21.045  17.526  -9.906  1.00  0.00     0.000 C 
BRANCH   5   6
ATOM      6  C   UNL     1      21.073  15.992  -9.992  1.00  0.00     0.006 C 
BRANCH   6   7
ATOM      7  C   UNL     1      22.297  15.384  -9.294  1.00  0.00     0.053 C 
BRANCH   7   8
ATOM      8  C   UNL     1      21.897  14.748  -8.001  1.00  0.00     0.041 C 
ATOM      9  O   UNL     1      22.693  14.739  -7.026  1.00  0.00    -0.550 OA
ATOM     10  O   UNL     1      20.662  14.121  -7.887  1.00  0.00    -0.550 OA
ENDBRANCH   7   8
ENDBRANCH   6   7
ENDBRANCH   5   6
ENDBRANCH   4   5
ENDBRANCH   3   4
ENDBRANCH   2   3
ENDBRANCH   1   2
BRANCH   1  11
ATOM     11  C   UNL     1      18.642  20.352 -13.727  1.00  0.00     0.000 C 
BRANCH  11  12
ATOM     12  C   UNL     1      17.190  19.955 -13.419  1.00  0.00    -0.000 C 
BRANCH  12  13
ATOM     13  C   UNL     1      16.716  20.432 -12.035  1.00  0.00    -0.000 C 
BRANCH  13  14
ATOM     14  C   UNL     1      15.392  21.217 -12.028  1.00  0.00    -0.000 C 
BRANCH  14  15
ATOM     15  C   UNL     1      15.524  22.622 -12.641  1.00  0.00    -0.000 C 
BRANCH  15  16
ATOM     16  C   UNL     1      14.182  23.188 -13.139  1.00  0.00    -0.000 C 
BRANCH  16  17
ATOM     17  C   UNL     1      12.935  22.421 -12.666  1.00  0.00    -0.003 C 
ATOM     18  C   UNL     1      11.831  23.337 -12.137  1.00  0.00     0.004 C 
ENDBRANCH  16  17
ENDBRANCH  15  16
ENDBRANCH  14  15
ENDBRANCH  13  14
ENDBRANCH  12  13
ENDBRANCH  11  12
ENDBRANCH   1  11
TORSDOF 14
ENDMDL
