MODEL 1
REMARK VINA RESULT:    -3.716      0.000      0.000
REMARK INTER + INTRA:          -9.673
REMARK INTER:                  -7.192
REMARK INTRA:                  -2.482
REMARK UNBOUND:                -2.482
REMARK SMILES CCCCCCCCCCCCCCCCCC(=O)[O-]
REMARK SMILES IDX 10 1 11 2 12 3 13 4 14 5 15 6 16 7 17 8 18 9 19 10 20 11
REMARK SMILES IDX 9 12 8 13 7 14 6 15 5 16 4 17 3 18 2 19 1 20
REMARK H PARENT
REMARK Flexibility Score: inf
ROOT
ATOM      1  C   UNL     1      39.474  25.729 227.252  1.00  0.00     0.000 C 
ENDROOT
BRANCH   1   2
ATOM      2  C   UNL     1      40.822  25.261 227.821  1.00  0.00     0.000 C 
BRANCH   2   3
ATOM      3  C   UNL     1      42.021  25.818 227.042  1.00  0.00     0.000 C 
BRANCH   3   4
ATOM      4  C   UNL     1      42.924  24.684 226.543  1.00  0.00     0.000 C 
BRANCH   4   5
ATOM      5  C   UNL     1      42.089  23.499 226.034  1.00  0.00     0.000 C 
BRANCH   5   6
ATOM      6  C   UNL     1      41.732  23.622 224.544  1.00  0.00     0.000 C 
BRANCH   6   7
ATOM      7  C   UNL     1      40.327  23.077 224.225  1.00  0.00     0.006 C 
BRANCH   7   8
ATOM      8  C   UNL     1      39.673  22.412 225.443  1.00  0.00     0.053 C 
BRANCH   8   9
ATOM      9  C   UNL     1      39.429  20.951 225.216  1.00  0.00     0.041 C 
ATOM     10  O   UNL     1      38.343  20.425 225.579  1.00  0.00    -0.550 OA
ATOM     11  O   UNL     1      40.412  20.165 224.628  1.00  0.00    -0.550 OA
ENDBRANCH   8   9
ENDBRANCH   7   8
ENDBRANCH   6   7
ENDBRANCH   5   6
ENDBRANCH   4   5
ENDBRANCH   3   4
ENDBRANCH   2   3
ENDBRANCH   1   2
BRANCH   1  12
ATOM     12  C   UNL     1      39.627  26.515 225.939  1.00  0.00     0.000 C 
BRANCH  12  13
ATOM     13  C   UNL     1      38.436  26.317 224.984  1.00  0.00    -0.000 C 
BRANCH  13  14
ATOM     14  C   UNL     1      37.392  25.281 225.445  1.00  0.00    -0.000 C 
BRANCH  14  15
ATOM     15  C   UNL     1      36.349  24.918 224.365  1.00  0.00    -0.000 C 
BRANCH  15  16
ATOM     16  C   UNL     1      36.559  23.500 223.804  1.00  0.00    -0.000 C 
BRANCH  16  17
ATOM     17  C   UNL     1      36.888  23.494 222.299  1.00  0.00    -0.000 C 
BRANCH  17  18
ATOM     18  C   UNL     1      35.745  23.967 221.381  1.00  0.00    -0.000 C 
BRANCH  18  19
ATOM     19  C   UNL     1      36.203  24.225 219.938  1.00  0.00    -0.003 C 
ATOM     20  C   UNL     1      37.382  23.330 219.566  1.00  0.00     0.004 C 
ENDBRANCH  18  19
ENDBRANCH  17  18
ENDBRANCH  16  17
ENDBRANCH  15  16
ENDBRANCH  14  15
ENDBRANCH  13  14
ENDBRANCH  12  13
ENDBRANCH   1  12
TORSDOF 16
ENDMDL
MODEL 2
REMARK VINA RESULT:    -3.695      2.433      5.255
REMARK INTER + INTRA:          -9.633
REMARK INTER:                  -7.013
REMARK INTRA:                  -2.620
REMARK UNBOUND:                -2.482
REMARK SMILES CCCCCCCCCCCCCCCCCC(=O)[O-]
REMARK SMILES IDX 10 1 11 2 12 3 13 4 14 5 15 6 16 7 17 8 18 9 19 10 20 11
REMARK SMILES IDX 9 12 8 13 7 14 6 15 5 16 4 17 3 18 2 19 1 20
REMARK H PARENT
REMARK Flexibility Score: inf
ROOT
ATOM      1  C   UNL     1      39.612  26.518 227.725  1.00  0.00     0.000 C 
ENDROOT
BRANCH   1   2
ATOM      2  C   UNL     1      38.697  25.986 226.611  1.00  0.00     0.000 C 
BRANCH   2   3
ATOM      3  C   UNL     1      38.997  26.617 225.244  1.00  0.00     0.000 C 
BRANCH   3   4
ATOM      4  C   UNL     1      37.974  26.163 224.196  1.00  0.00     0.000 C 
BRANCH   4   5
ATOM      5  C   UNL     1      36.903  25.260 224.827  1.00  0.00     0.000 C 
BRANCH   5   6
ATOM      6  C   UNL     1      36.055  24.524 223.778  1.00  0.00     0.000 C 
BRANCH   6   7
ATOM      7  C   UNL     1      36.578  24.729 222.344  1.00  0.00     0.006 C 
BRANCH   7   8
ATOM      8  C   UNL     1      36.435  23.464 221.487  1.00  0.00     0.053 C 
BRANCH   8   9
ATOM      9  C   UNL     1      36.970  23.666 220.102  1.00  0.00     0.041 C 
ATOM     10  O   UNL     1      37.981  23.022 219.712  1.00  0.00    -0.550 OA
ATOM     11  O   UNL     1      36.369  24.585 219.251  1.00  0.00    -0.550 OA
ENDBRANCH   8   9
ENDBRANCH   7   8
ENDBRANCH   6   7
ENDBRANCH   5   6
ENDBRANCH   4   5
ENDBRANCH   3   4
ENDBRANCH   2   3
ENDBRANCH   1   2
BRANCH   1  12
ATOM     12  C   UNL     1      40.715  27.447 227.192  1.00  0.00     0.000 C 
BRANCH  12  13
ATOM     13  C   UNL     1      42.118  26.824 227.292  1.00  0.00    -0.000 C 
BRANCH  13  14
ATOM     14  C   UNL     1      42.610  26.111 226.017  1.00  0.00    -0.000 C 
BRANCH  14  15
ATOM     15  C   UNL     1      42.775  24.584 226.176  1.00  0.00    -0.000 C 
BRANCH  15  16
ATOM     16  C   UNL     1      41.558  23.806 225.645  1.00  0.00    -0.000 C 
BRANCH  16  17
ATOM     17  C   UNL     1      41.316  24.026 224.140  1.00  0.00    -0.000 C 
BRANCH  17  18
ATOM     18  C   UNL     1      40.166  23.197 223.538  1.00  0.00    -0.000 C 
BRANCH  18  19
ATOM     19  C   UNL     1      39.864  21.921 224.337  1.00  0.00    -0.003 C 
ATOM     20  C   UNL     1      38.430  21.924 224.860  1.00  0.00     0.004 C 
ENDBRANCH  18  19
ENDBRANCH  17  18
ENDBRANCH  16  17
ENDBRANCH  15  16
ENDBRANCH  14  15
ENDBRANCH  13  14
ENDBRANCH  12  13
ENDBRANCH   1  12
TORSDOF 16
ENDMDL
MODEL 3
REMARK VINA RESULT:    -3.686      2.782      4.980
REMARK INTER + INTRA:          -9.615
REMARK INTER:                  -7.353
REMARK INTRA:                  -2.263
REMARK UNBOUND:                -2.482
REMARK SMILES CCCCCCCCCCCCCCCCCC(=O)[O-]
REMARK SMILES IDX 10 1 11 2 12 3 13 4 14 5 15 6 16 7 17 8 18 9 19 10 20 11
REMARK SMILES IDX 9 12 8 13 7 14 6 15 5 16 4 17 3 18 2 19 1 20
REMARK H PARENT
REMARK Flexibility Score: inf
ROOT
ATOM      1  C   UNL     1      41.209  19.683 224.062  1.00  0.00     0.000 C 
ENDROOT
BRANCH   1   2
ATOM      2  C   UNL     1      41.027  19.524 225.579  1.00  0.00     0.000 C 
BRANCH   2   3
ATOM      3  C   UNL     1      40.159  20.631 226.193  1.00  0.00     0.000 C 
BRANCH   3   4
ATOM      4  C   UNL     1      38.936  20.918 225.315  1.00  0.00     0.000 C 
BRANCH   4   5
ATOM      5  C   UNL     1      37.644  20.896 226.145  1.00  0.00     0.000 C 
BRANCH   5   6
ATOM      6  C   UNL     1      36.620  19.877 225.620  1.00  0.00     0.000 C 
BRANCH   6   7
ATOM      7  C   UNL     1      37.131  18.427 225.702  1.00  0.00     0.006 C 
BRANCH   7   8
ATOM      8  C   UNL     1      36.865  17.794 227.074  1.00  0.00     0.053 C 
BRANCH   8   9
ATOM      9  C   UNL     1      38.122  17.658 227.878  1.00  0.00     0.041 C 
ATOM     10  O   UNL     1      39.032  16.871 227.505  1.00  0.00    -0.550 OA
ATOM     11  O   UNL     1      38.276  18.382 229.055  1.00  0.00    -0.550 OA
ENDBRANCH   8   9
ENDBRANCH   7   8
ENDBRANCH   6   7
ENDBRANCH   5   6
ENDBRANCH   4   5
ENDBRANCH   3   4
ENDBRANCH   2   3
ENDBRANCH   1   2
BRANCH   1  12
ATOM     12  C   UNL     1      42.280  20.725 223.700  1.00  0.00     0.000 C 
BRANCH  12  13
ATOM     13  C   UNL     1      41.782  21.760 222.675  1.00  0.00    -0.000 C 
BRANCH  13  14
ATOM     14  C   UNL     1      41.204  23.055 223.278  1.00  0.00    -0.000 C 
BRANCH  14  15
ATOM     15  C   UNL     1      39.812  23.435 222.730  1.00  0.00    -0.000 C 
BRANCH  15  16
ATOM     16  C   UNL     1      39.110  24.493 223.601  1.00  0.00    -0.000 C 
BRANCH  16  17
ATOM     17  C   UNL     1      37.691  24.072 224.026  1.00  0.00    -0.000 C 
BRANCH  17  18
ATOM     18  C   UNL     1      36.975  23.117 223.052  1.00  0.00    -0.000 C 
BRANCH  18  19
ATOM     19  C   UNL     1      35.954  23.832 222.154  1.00  0.00    -0.003 C 
ATOM     20  C   UNL     1      36.459  23.935 220.718  1.00  0.00     0.004 C 
ENDBRANCH  18  19
ENDBRANCH  17  18
ENDBRANCH  16  17
ENDBRANCH  15  16
ENDBRANCH  14  15
ENDBRANCH  13  14
ENDBRANCH  12  13
ENDBRANCH   1  12
TORSDOF 16
ENDMDL
MODEL 4
REMARK VINA RESULT:    -3.603      2.138      3.644
REMARK INTER + INTRA:          -9.454
REMARK INTER:                  -7.602
REMARK INTRA:                  -1.852
REMARK UNBOUND:                -2.482
REMARK SMILES CCCCCCCCCCCCCCCCCC(=O)[O-]
REMARK SMILES IDX 10 1 11 2 12 3 13 4 14 5 15 6 16 7 17 8 18 9 19 10 20 11
REMARK SMILES IDX 9 12 8 13 7 14 6 15 5 16 4 17 3 18 2 19 1 20
REMARK H PARENT
REMARK Flexibility Score: inf
ROOT
ATOM      1  C   UNL     1      41.201  23.677 224.571  1.00  0.00     0.000 C 
ENDROOT
BRANCH   1   2
ATOM      2  C   UNL     1      41.200  22.544 225.609  1.00  0.00     0.000 C 
BRANCH   2   3
ATOM      3  C   UNL     1      40.018  21.580 225.435  1.00  0.00     0.000 C 
BRANCH   3   4
ATOM      4  C   UNL     1      38.811  22.040 226.261  1.00  0.00     0.000 C 
BRANCH   4   5
ATOM      5  C   UNL     1      39.176  22.165 227.748  1.00  0.00     0.000 C 
BRANCH   5   6
ATOM      6  C   UNL     1      38.527  21.073 228.612  1.00  0.00     0.000 C 
BRANCH   6   7
ATOM      7  C   UNL     1      38.994  19.657 228.226  1.00  0.00     0.006 C 
BRANCH   7   8
ATOM      8  C   UNL     1      37.822  18.678 228.084  1.00  0.00     0.053 C 
BRANCH   8   9
ATOM      9  C   UNL     1      37.214  18.732 226.715  1.00  0.00     0.041 C 
ATOM     10  O   UNL     1      37.844  18.278 225.722  1.00  0.00    -0.550 OA
ATOM     11  O   UNL     1      35.963  19.309 226.532  1.00  0.00    -0.550 OA
ENDBRANCH   8   9
ENDBRANCH   7   8
ENDBRANCH   6   7
ENDBRANCH   5   6
ENDBRANCH   4   5
ENDBRANCH   3   4
ENDBRANCH   2   3
ENDBRANCH   1   2
BRANCH   1  12
ATOM     12  C   UNL     1      40.844  23.186 223.159  1.00  0.00     0.000 C 
BRANCH  12  13
ATOM     13  C   UNL     1      39.615  23.904 222.571  1.00  0.00    -0.000 C 
BRANCH  13  14
ATOM     14  C   UNL     1      38.695  24.580 223.606  1.00  0.00    -0.000 C 
BRANCH  14  15
ATOM     15  C   UNL     1      37.238  24.072 223.576  1.00  0.00    -0.000 C 
BRANCH  15  16
ATOM     16  C   UNL     1      36.390  24.789 222.510  1.00  0.00    -0.000 C 
BRANCH  16  17
ATOM     17  C   UNL     1      35.434  23.837 221.767  1.00  0.00    -0.000 C 
BRANCH  17  18
ATOM     18  C   UNL     1      35.239  24.148 220.270  1.00  0.00    -0.000 C 
BRANCH  18  19
ATOM     19  C   UNL     1      36.560  24.441 219.543  1.00  0.00    -0.003 C 
ATOM     20  C   UNL     1      37.412  23.181 219.417  1.00  0.00     0.004 C 
ENDBRANCH  18  19
ENDBRANCH  17  18
ENDBRANCH  16  17
ENDBRANCH  15  16
ENDBRANCH  14  15
ENDBRANCH  13  14
ENDBRANCH  12  13
ENDBRANCH   1  12
TORSDOF 16
ENDMDL
MODEL 5
REMARK VINA RESULT:    -3.595      1.956      3.390
REMARK INTER + INTRA:          -9.440
REMARK INTER:                  -7.369
REMARK INTRA:                  -2.071
REMARK UNBOUND:                -2.482
REMARK SMILES CCCCCCCCCCCCCCCCCC(=O)[O-]
REMARK SMILES IDX 10 1 11 2 12 3 13 4 14 5 15 6 16 7 17 8 18 9 19 10 20 11
REMARK SMILES IDX 9 12 8 13 7 14 6 15 5 16 4 17 3 18 2 19 1 20
REMARK H PARENT
REMARK Flexibility Score: inf
ROOT
ATOM      1  C   UNL     1      39.572  22.639 223.797  1.00  0.00     0.000 C 
ENDROOT
BRANCH   1   2
ATOM      2  C   UNL     1      40.756  23.007 222.888  1.00  0.00     0.000 C 
BRANCH   2   3
ATOM      3  C   UNL     1      42.000  22.149 223.157  1.00  0.00     0.000 C 
BRANCH   3   4
ATOM      4  C   UNL     1      41.997  20.891 222.282  1.00  0.00     0.000 C 
BRANCH   4   5
ATOM      5  C   UNL     1      41.908  19.621 223.142  1.00  0.00     0.000 C 
BRANCH   5   6
ATOM      6  C   UNL     1      42.096  19.905 224.640  1.00  0.00     0.000 C 
BRANCH   6   7
ATOM      7  C   UNL     1      41.209  19.014 225.528  1.00  0.00     0.006 C 
BRANCH   7   8
ATOM      8  C   UNL     1      40.062  19.799 226.177  1.00  0.00     0.053 C 
BRANCH   8   9
ATOM      9  C   UNL     1      38.912  18.909 226.539  1.00  0.00     0.041 C 
ATOM     10  O   UNL     1      38.251  18.328 225.636  1.00  0.00    -0.550 OA
ATOM     11  O   UNL     1      38.553  18.743 227.871  1.00  0.00    -0.550 OA
ENDBRANCH   8   9
ENDBRANCH   7   8
ENDBRANCH   6   7
ENDBRANCH   5   6
ENDBRANCH   4   5
ENDBRANCH   3   4
ENDBRANCH   2   3
ENDBRANCH   1   2
BRANCH   1  12
ATOM     12  C   UNL     1      39.580  23.418 225.122  1.00  0.00     0.000 C 
BRANCH  12  13
ATOM     13  C   UNL     1      39.673  24.941 224.918  1.00  0.00    -0.000 C 
BRANCH  13  14
ATOM     14  C   UNL     1      38.392  25.727 225.260  1.00  0.00    -0.000 C 
BRANCH  14  15
ATOM     15  C   UNL     1      37.170  24.834 225.566  1.00  0.00    -0.000 C 
BRANCH  15  16
ATOM     16  C   UNL     1      35.993  25.106 224.613  1.00  0.00    -0.000 C 
BRANCH  16  17
ATOM     17  C   UNL     1      35.976  24.161 223.397  1.00  0.00    -0.000 C 
BRANCH  17  18
ATOM     18  C   UNL     1      36.700  24.696 222.146  1.00  0.00    -0.000 C 
BRANCH  18  19
ATOM     19  C   UNL     1      36.295  23.961 220.860  1.00  0.00    -0.003 C 
ATOM     20  C   UNL     1      37.494  23.265 220.222  1.00  0.00     0.004 C 
ENDBRANCH  18  19
ENDBRANCH  17  18
ENDBRANCH  16  17
ENDBRANCH  15  16
ENDBRANCH  14  15
ENDBRANCH  13  14
ENDBRANCH  12  13
ENDBRANCH   1  12
TORSDOF 16
ENDMDL
MODEL 6
REMARK VINA RESULT:    -3.577      2.182      3.701
REMARK INTER + INTRA:          -9.405
REMARK INTER:                  -6.753
REMARK INTRA:                  -2.652
REMARK UNBOUND:                -2.482
REMARK SMILES CCCCCCCCCCCCCCCCCC(=O)[O-]
REMARK SMILES IDX 10 1 11 2 12 3 13 4 14 5 15 6 16 7 17 8 18 9 19 10 20 11
REMARK SMILES IDX 9 12 8 13 7 14 6 15 5 16 4 17 3 18 2 19 1 20
REMARK H PARENT
REMARK Flexibility Score: inf
ROOT
ATOM      1  C   UNL     1      40.710  24.154 223.694  1.00  0.00     0.000 C 
ENDROOT
BRANCH   1   2
ATOM      2  C   UNL     1      39.904  22.907 223.297  1.00  0.00     0.000 C 
BRANCH   2   3
ATOM      3  C   UNL     1      39.604  21.989 224.489  1.00  0.00     0.000 C 
BRANCH   3   4
ATOM      4  C   UNL     1      38.094  21.893 224.739  1.00  0.00     0.000 C 
BRANCH   4   5
ATOM      5  C   UNL     1      37.801  21.448 226.180  1.00  0.00     0.000 C 
BRANCH   5   6
ATOM      6  C   UNL     1      38.690  22.158 227.212  1.00  0.00     0.000 C 
BRANCH   6   7
ATOM      7  C   UNL     1      39.489  21.171 228.084  1.00  0.00     0.006 C 
BRANCH   7   8
ATOM      8  C   UNL     1      39.180  19.709 227.737  1.00  0.00     0.053 C 
BRANCH   8   9
ATOM      9  C   UNL     1      38.624  18.963 228.912  1.00  0.00     0.041 C 
ATOM     10  O   UNL     1      38.031  17.864 228.743  1.00  0.00    -0.550 OA
ATOM     11  O   UNL     1      38.738  19.495 230.191  1.00  0.00    -0.550 OA
ENDBRANCH   8   9
ENDBRANCH   7   8
ENDBRANCH   6   7
ENDBRANCH   5   6
ENDBRANCH   4   5
ENDBRANCH   3   4
ENDBRANCH   2   3
ENDBRANCH   1   2
BRANCH   1  12
ATOM     12  C   UNL     1      40.833  24.318 225.218  1.00  0.00     0.000 C 
BRANCH  12  13
ATOM     13  C   UNL     1      40.105  25.568 225.744  1.00  0.00    -0.000 C 
BRANCH  13  14
ATOM     14  C   UNL     1      38.830  25.957 224.970  1.00  0.00    -0.000 C 
BRANCH  14  15
ATOM     15  C   UNL     1      37.528  25.398 225.584  1.00  0.00    -0.000 C 
BRANCH  15  16
ATOM     16  C   UNL     1      36.366  25.383 224.575  1.00  0.00    -0.000 C 
BRANCH  16  17
ATOM     17  C   UNL     1      36.830  25.122 223.130  1.00  0.00    -0.000 C 
BRANCH  17  18
ATOM     18  C   UNL     1      36.105  23.968 222.412  1.00  0.00    -0.000 C 
BRANCH  18  19
ATOM     19  C   UNL     1      36.149  24.094 220.882  1.00  0.00    -0.003 C 
ATOM     20  C   UNL     1      37.383  23.404 220.306  1.00  0.00     0.004 C 
ENDBRANCH  18  19
ENDBRANCH  17  18
ENDBRANCH  16  17
ENDBRANCH  15  16
ENDBRANCH  14  15
ENDBRANCH  13  14
ENDBRANCH  12  13
ENDBRANCH   1  12
TORSDOF 16
ENDMDL
MODEL 7
REMARK VINA RESULT:    -3.568      3.051      5.984
REMARK INTER + INTRA:          -9.387
REMARK INTER:                  -7.025
REMARK INTRA:                  -2.362
REMARK UNBOUND:                -2.482
REMARK SMILES CCCCCCCCCCCCCCCCCC(=O)[O-]
REMARK SMILES IDX 10 1 11 2 12 3 13 4 14 5 15 6 16 7 17 8 18 9 19 10 20 11
REMARK SMILES IDX 9 12 8 13 7 14 6 15 5 16 4 17 3 18 2 19 1 20
REMARK H PARENT
REMARK Flexibility Score: inf
ROOT
ATOM      1  C   UNL     1      42.185  22.763 226.629  1.00  0.00     0.000 C 
ENDROOT
BRANCH   1   2
ATOM      2  C   UNL     1      42.022  23.652 225.386  1.00  0.00     0.000 C 
BRANCH   2   3
ATOM      3  C   UNL     1      41.775  22.843 224.105  1.00  0.00     0.000 C 
BRANCH   3   4
ATOM      4  C   UNL     1      40.531  23.353 223.367  1.00  0.00     0.000 C 
BRANCH   4   5
ATOM      5  C   UNL     1      39.761  24.370 224.223  1.00  0.00     0.000 C 
BRANCH   5   6
ATOM      6  C   UNL     1      38.309  24.557 223.758  1.00  0.00     0.000 C 
BRANCH   6   7
ATOM      7  C   UNL     1      37.975  23.723 222.508  1.00  0.00     0.006 C 
BRANCH   7   8
ATOM      8  C   UNL     1      36.560  23.133 222.564  1.00  0.00     0.053 C 
BRANCH   8   9
ATOM      9  C   UNL     1      35.649  23.773 221.560  1.00  0.00     0.041 C 
ATOM     10  O   UNL     1      36.118  24.250 220.491  1.00  0.00    -0.550 OA
ATOM     11  O   UNL     1      34.287  23.866 221.817  1.00  0.00    -0.550 OA
ENDBRANCH   8   9
ENDBRANCH   7   8
ENDBRANCH   6   7
ENDBRANCH   5   6
ENDBRANCH   4   5
ENDBRANCH   3   4
ENDBRANCH   2   3
ENDBRANCH   1   2
BRANCH   1  12
ATOM     12  C   UNL     1      41.885  21.283 226.341  1.00  0.00     0.000 C 
BRANCH  12  13
ATOM     13  C   UNL     1      40.638  20.772 227.085  1.00  0.00    -0.000 C 
BRANCH  13  14
ATOM     14  C   UNL     1      39.324  21.495 226.734  1.00  0.00    -0.000 C 
BRANCH  14  15
ATOM     15  C   UNL     1      38.646  20.977 225.447  1.00  0.00    -0.000 C 
BRANCH  15  16
ATOM     16  C   UNL     1      37.333  20.230 225.738  1.00  0.00    -0.000 C 
BRANCH  16  17
ATOM     17  C   UNL     1      37.521  18.705 225.841  1.00  0.00    -0.000 C 
BRANCH  17  18
ATOM     18  C   UNL     1      37.074  18.083 227.178  1.00  0.00    -0.000 C 
BRANCH  18  19
ATOM     19  C   UNL     1      38.253  17.659 228.066  1.00  0.00    -0.003 C 
ATOM     20  C   UNL     1      38.487  18.666 229.189  1.00  0.00     0.004 C 
ENDBRANCH  18  19
ENDBRANCH  17  18
ENDBRANCH  16  17
ENDBRANCH  15  16
ENDBRANCH  14  15
ENDBRANCH  13  14
ENDBRANCH  12  13
ENDBRANCH   1  12
TORSDOF 16
ENDMDL
MODEL 8
REMARK VINA RESULT:    -3.558      2.471      5.465
REMARK INTER + INTRA:          -9.367
REMARK INTER:                  -7.306
REMARK INTRA:                  -2.061
REMARK UNBOUND:                -2.482
REMARK SMILES CCCCCCCCCCCCCCCCCC(=O)[O-]
REMARK SMILES IDX 10 1 11 2 12 3 13 4 14 5 15 6 16 7 17 8 18 9 19 10 20 11
REMARK SMILES IDX 9 12 8 13 7 14 6 15 5 16 4 17 3 18 2 19 1 20
REMARK H PARENT
REMARK Flexibility Score: inf
ROOT
ATOM      1  C   UNL     1      40.066  25.599 226.843  1.00  0.00     0.000 C 
ENDROOT
BRANCH   1   2
ATOM      2  C   UNL     1      39.407  26.287 225.638  1.00  0.00     0.000 C 
BRANCH   2   3
ATOM      3  C   UNL     1      38.044  25.680 225.279  1.00  0.00     0.000 C 
BRANCH   3   4
ATOM      4  C   UNL     1      38.078  24.152 225.396  1.00  0.00     0.000 C 
BRANCH   4   5
ATOM      5  C   UNL     1      37.173  23.498 224.341  1.00  0.00     0.000 C 
BRANCH   5   6
ATOM      6  C   UNL     1      36.128  24.470 223.771  1.00  0.00     0.000 C 
BRANCH   6   7
ATOM      7  C   UNL     1      35.992  24.362 222.241  1.00  0.00     0.006 C 
BRANCH   7   8
ATOM      8  C   UNL     1      37.113  23.522 221.616  1.00  0.00     0.053 C 
BRANCH   8   9
ATOM      9  C   UNL     1      37.058  23.546 220.119  1.00  0.00     0.041 C 
ATOM     10  O   UNL     1      37.934  22.942 219.443  1.00  0.00    -0.550 OA
ATOM     11  O   UNL     1      36.056  24.257 219.470  1.00  0.00    -0.550 OA
ENDBRANCH   8   9
ENDBRANCH   7   8
ENDBRANCH   6   7
ENDBRANCH   5   6
ENDBRANCH   4   5
ENDBRANCH   3   4
ENDBRANCH   2   3
ENDBRANCH   1   2
BRANCH   1  12
ATOM     12  C   UNL     1      41.595  25.760 226.852  1.00  0.00     0.000 C 
BRANCH  12  13
ATOM     13  C   UNL     1      42.264  25.168 225.599  1.00  0.00    -0.000 C 
BRANCH  13  14
ATOM     14  C   UNL     1      41.971  23.677 225.341  1.00  0.00    -0.000 C 
BRANCH  14  15
ATOM     15  C   UNL     1      41.501  23.370 223.903  1.00  0.00    -0.000 C 
BRANCH  15  16
ATOM     16  C   UNL     1      40.656  22.085 223.826  1.00  0.00    -0.000 C 
BRANCH  16  17
ATOM     17  C   UNL     1      40.431  21.433 225.203  1.00  0.00    -0.000 C 
BRANCH  17  18
ATOM     18  C   UNL     1      39.895  19.990 225.160  1.00  0.00    -0.000 C 
BRANCH  18  19
ATOM     19  C   UNL     1      38.537  19.834 225.860  1.00  0.00    -0.003 C 
ATOM     20  C   UNL     1      38.205  18.364 226.099  1.00  0.00     0.004 C 
ENDBRANCH  18  19
ENDBRANCH  17  18
ENDBRANCH  16  17
ENDBRANCH  15  16
ENDBRANCH  14  15
ENDBRANCH  13  14
ENDBRANCH  12  13
ENDBRANCH   1  12
TORSDOF 16
ENDMDL
MODEL 9
REMARK VINA RESULT:    -3.515      2.655      4.769
REMARK INTER + INTRA:          -9.284
REMARK INTER:                  -6.169
REMARK INTRA:                  -3.115
REMARK UNBOUND:                -2.482
REMARK SMILES CCCCCCCCCCCCCCCCCC(=O)[O-]
REMARK SMILES IDX 10 1 11 2 12 3 13 4 14 5 15 6 16 7 17 8 18 9 19 10 20 11
REMARK SMILES IDX 9 12 8 13 7 14 6 15 5 16 4 17 3 18 2 19 1 20
REMARK H PARENT
REMARK Flexibility Score: inf
ROOT
ATOM      1  C   UNL     1      40.716  20.760 225.057  1.00  0.00     0.000 C 
ENDROOT
BRANCH   1   2
ATOM      2  C   UNL     1      42.056  20.536 225.775  1.00  0.00     0.000 C 
BRANCH   2   3
ATOM      3  C   UNL     1      42.165  21.323 227.088  1.00  0.00     0.000 C 
BRANCH   3   4
ATOM      4  C   UNL     1      41.356  20.646 228.201  1.00  0.00     0.000 C 
BRANCH   4   5
ATOM      5  C   UNL     1      40.183  21.532 228.646  1.00  0.00     0.000 C 
BRANCH   5   6
ATOM      6  C   UNL     1      38.816  20.936 228.278  1.00  0.00     0.000 C 
BRANCH   6   7
ATOM      7  C   UNL     1      38.800  19.398 228.355  1.00  0.00     0.006 C 
BRANCH   7   8
ATOM      8  C   UNL     1      38.225  18.759 227.085  1.00  0.00     0.053 C 
BRANCH   8   9
ATOM      9  C   UNL     1      36.861  18.184 227.320  1.00  0.00     0.041 C 
ATOM     10  O   UNL     1      36.732  17.074 227.904  1.00  0.00    -0.550 OA
ATOM     11  O   UNL     1      35.734  18.860 226.869  1.00  0.00    -0.550 OA
ENDBRANCH   8   9
ENDBRANCH   7   8
ENDBRANCH   6   7
ENDBRANCH   5   6
ENDBRANCH   4   5
ENDBRANCH   3   4
ENDBRANCH   2   3
ENDBRANCH   1   2
BRANCH   1  12
ATOM     12  C   UNL     1      40.892  21.335 223.642  1.00  0.00     0.000 C 
BRANCH  12  13
ATOM     13  C   UNL     1      41.855  22.536 223.603  1.00  0.00    -0.000 C 
BRANCH  13  14
ATOM     14  C   UNL     1      41.194  23.912 223.815  1.00  0.00    -0.000 C 
BRANCH  14  15
ATOM     15  C   UNL     1      41.349  24.469 225.246  1.00  0.00    -0.000 C 
BRANCH  15  16
ATOM     16  C   UNL     1      40.064  24.311 226.078  1.00  0.00    -0.000 C 
BRANCH  16  17
ATOM     17  C   UNL     1      38.790  24.281 225.212  1.00  0.00    -0.000 C 
BRANCH  17  18
ATOM     18  C   UNL     1      37.879  23.059 225.436  1.00  0.00    -0.000 C 
BRANCH  18  19
ATOM     19  C   UNL     1      37.274  22.516 224.134  1.00  0.00    -0.003 C 
ATOM     20  C   UNL     1      37.628  23.408 222.947  1.00  0.00     0.004 C 
ENDBRANCH  18  19
ENDBRANCH  17  18
ENDBRANCH  16  17
ENDBRANCH  15  16
ENDBRANCH  14  15
ENDBRANCH  13  14
ENDBRANCH  12  13
ENDBRANCH   1  12
TORSDOF 16
ENDMDL
