MODEL 1
REMARK VINA RESULT:   101.021      0.000      0.000
REMARK INTER + INTRA:         111.625
REMARK INTER:                 109.879
REMARK INTRA:                   1.746
REMARK UNBOUND:                 1.746
REMARK SMILES C[C@H]1[C@H](C)CC[C@@]2(C(=O)[O-])CC[C@]3(C)C(=CC[C@@H]4[C@]5(C)CC[C@@H](O)C(C)(C)[C@H]5CC[C@@]43C)[C@H]12
REMARK SMILES IDX 7 1 6 2 11 3 33 4 5 5 12 6 15 7 2 8 3 9 13 10 16 11 1 12
REMARK SMILES IDX 4 13 14 14 31 15 17 16 18 17 30 18 32 19 19 20 29 21 28 22
REMARK SMILES IDX 21 23 20 24 25 25 22 26 23 27 26 28 27 29 8 30 9 31 10 32
REMARK SMILES IDX 24 33
REMARK H PARENT 24 34
REMARK Flexibility Score: inf
ROOT
ATOM      1  C   UNL     1     -30.337   1.120 -26.663  1.00  0.00     0.017 C 
ATOM      2  C   UNL     1     -29.681   2.283 -27.449  1.00  0.00     0.014 C 
ATOM      3  C   UNL     1     -29.340  -0.039 -26.537  1.00  0.00     0.014 C 
ATOM      4  C   UNL     1     -30.629   1.648 -25.221  1.00  0.00     0.030 C 
ATOM      5  C   UNL     1     -30.631   3.485 -27.550  1.00  0.00     0.004 C 
ATOM      6  C   UNL     1     -29.998  -1.257 -25.874  1.00  0.00     0.013 C 
ATOM      7  C   UNL     1     -30.802   0.528 -24.159  1.00  0.00    -0.063 C 
ATOM      8  C   UNL     1     -31.684   2.829 -25.280  1.00  0.00    -0.003 C 
ATOM      9  C   UNL     1     -31.107   3.988 -26.169  1.00  0.00    -0.011 C 
ATOM     10  C   UNL     1     -30.672  -0.994 -24.461  1.00  0.00    -0.006 C 
ATOM     11  C   UNL     1     -30.724   0.898 -22.867  1.00  0.00    -0.027 C 
ATOM     12  C   UNL     1     -32.117   3.372 -23.902  1.00  0.00     0.008 C 
ATOM     13  C   UNL     1     -32.125   5.124 -26.390  1.00  0.00     0.008 C 
ATOM     14  C   UNL     1     -32.122  -1.565 -24.495  1.00  0.00     0.017 C 
ATOM     15  C   UNL     1     -29.822  -1.740 -23.298  1.00  0.00    -0.020 C 
ATOM     16  C   UNL     1     -31.029  -0.019 -21.734  1.00  0.00     0.032 C 
ATOM     17  C   UNL     1     -30.478  -1.474 -21.862  1.00  0.00     0.006 C 
ATOM     18  C   UNL     1     -28.350  -1.194 -23.294  1.00  0.00     0.008 C 
ATOM     19  C   UNL     1     -29.794  -3.288 -23.595  1.00  0.00     0.012 C 
ATOM     20  C   UNL     1     -29.599  -1.911 -20.598  1.00  0.00    -0.025 C 
ATOM     21  C   UNL     1     -27.502  -1.605 -22.076  1.00  0.00     0.005 C 
ATOM     22  C   UNL     1     -28.185  -1.230 -20.736  1.00  0.00     0.003 C 
ATOM     23  C   UNL     1     -30.309  -1.492 -19.241  1.00  0.00     0.010 C 
ATOM     24  C   UNL     1     -29.480  -3.466 -20.528  1.00  0.00     0.012 C 
ATOM     25  C   UNL     1     -27.229  -1.330 -19.469  1.00  0.00    -0.006 C 
ATOM     26  C   UNL     1     -29.435  -0.629 -18.318  1.00  0.00     0.033 C 
ATOM     27  C   UNL     1     -28.054  -1.279 -18.121  1.00  0.00     0.120 C 
ATOM     28  C   UNL     1     -26.262  -0.113 -19.472  1.00  0.00     0.014 C 
ATOM     29  C   UNL     1     -26.325  -2.597 -19.502  1.00  0.00     0.014 C 
ENDROOT
BRANCH   1  30
ATOM     30  C   UNL     1     -31.544   0.633 -27.476  1.00  0.00     0.048 C 
ATOM     31  O   UNL     1     -32.028  -0.517 -27.329  1.00  0.00    -0.550 OA
ATOM     32  O   UNL     1     -32.098   1.469 -28.444  1.00  0.00    -0.550 OA
ENDBRANCH   1  30
BRANCH  27  33
ATOM     33  O   UNL     1     -28.225  -2.566 -17.578  1.00  0.00    -0.393 OA
ATOM     34  H   UNL     1     -27.559  -2.677 -16.852  1.00  0.00     0.210 HD
ENDBRANCH  27  33
TORSDOF 2
ENDMDL
MODEL 2
REMARK VINA RESULT:   101.538      2.019      4.214
REMARK INTER + INTRA:         112.188
REMARK INTER:                 110.696
REMARK INTRA:                   1.491
REMARK UNBOUND:                 1.746
REMARK SMILES C[C@H]1[C@H](C)CC[C@@]2(C(=O)[O-])CC[C@]3(C)C(=CC[C@@H]4[C@]5(C)CC[C@@H](O)C(C)(C)[C@H]5CC[C@@]43C)[C@H]12
REMARK SMILES IDX 7 1 6 2 11 3 33 4 5 5 12 6 15 7 2 8 3 9 13 10 16 11 1 12
REMARK SMILES IDX 4 13 14 14 31 15 17 16 18 17 30 18 32 19 19 20 29 21 28 22
REMARK SMILES IDX 21 23 20 24 25 25 22 26 23 27 26 28 27 29 8 30 9 31 10 32
REMARK SMILES IDX 24 33
REMARK H PARENT 24 34
REMARK Flexibility Score: inf
ROOT
ATOM      1  C   UNL     1     -31.077  -2.012 -26.437  1.00  0.00     0.017 C 
ATOM      2  C   UNL     1     -31.328  -3.206 -27.389  1.00  0.00     0.014 C 
ATOM      3  C   UNL     1     -32.125  -2.020 -25.317  1.00  0.00     0.014 C 
ATOM      4  C   UNL     1     -29.679  -2.239 -25.775  1.00  0.00     0.030 C 
ATOM      5  C   UNL     1     -30.266  -3.263 -28.496  1.00  0.00     0.004 C 
ATOM      6  C   UNL     1     -31.983  -0.779 -24.426  1.00  0.00     0.013 C 
ATOM      7  C   UNL     1     -29.471  -1.456 -24.450  1.00  0.00    -0.063 C 
ATOM      8  C   UNL     1     -28.544  -2.205 -26.881  1.00  0.00    -0.003 C 
ATOM      9  C   UNL     1     -28.826  -3.330 -27.939  1.00  0.00    -0.011 C 
ATOM     10  C   UNL     1     -30.547  -0.542 -23.793  1.00  0.00    -0.006 C 
ATOM     11  C   UNL     1     -28.449  -1.849 -23.665  1.00  0.00    -0.027 C 
ATOM     12  C   UNL     1     -27.108  -2.331 -26.331  1.00  0.00     0.008 C 
ATOM     13  C   UNL     1     -27.842  -3.284 -29.125  1.00  0.00     0.008 C 
ATOM     14  C   UNL     1     -30.118   0.928 -24.084  1.00  0.00     0.017 C 
ATOM     15  C   UNL     1     -30.605  -0.784 -22.190  1.00  0.00    -0.020 C 
ATOM     16  C   UNL     1     -28.018  -1.104 -22.451  1.00  0.00     0.032 C 
ATOM     17  C   UNL     1     -29.161  -0.565 -21.534  1.00  0.00     0.006 C 
ATOM     18  C   UNL     1     -31.079  -2.252 -21.899  1.00  0.00     0.008 C 
ATOM     19  C   UNL     1     -31.638   0.223 -21.555  1.00  0.00     0.012 C 
ATOM     20  C   UNL     1     -29.002  -1.038 -20.013  1.00  0.00    -0.025 C 
ATOM     21  C   UNL     1     -30.921  -2.714 -20.439  1.00  0.00     0.005 C 
ATOM     22  C   UNL     1     -29.470  -2.539 -19.924  1.00  0.00     0.003 C 
ATOM     23  C   UNL     1     -27.502  -0.872 -19.521  1.00  0.00     0.010 C 
ATOM     24  C   UNL     1     -29.842  -0.121 -19.068  1.00  0.00     0.012 C 
ATOM     25  C   UNL     1     -29.170  -3.289 -18.553  1.00  0.00    -0.006 C 
ATOM     26  C   UNL     1     -26.881  -2.161 -18.962  1.00  0.00     0.033 C 
ATOM     27  C   UNL     1     -27.811  -2.795 -17.913  1.00  0.00     0.120 C 
ATOM     28  C   UNL     1     -29.031  -4.811 -18.834  1.00  0.00     0.014 C 
ATOM     29  C   UNL     1     -30.334  -3.146 -17.529  1.00  0.00     0.014 C 
ENDROOT
BRANCH   1  30
ATOM     30  C   UNL     1     -31.251  -0.723 -27.252  1.00  0.00     0.048 C 
ATOM     31  O   UNL     1     -31.089   0.415 -26.746  1.00  0.00    -0.550 OA
ATOM     32  O   UNL     1     -31.650  -0.806 -28.585  1.00  0.00    -0.550 OA
ENDBRANCH   1  30
BRANCH  27  33
ATOM     33  O   UNL     1     -28.040  -1.869 -16.880  1.00  0.00    -0.393 OA
ATOM     34  H   UNL     1     -27.233  -1.855 -16.304  1.00  0.00     0.210 HD
ENDBRANCH  27  33
TORSDOF 2
ENDMDL
MODEL 3
REMARK VINA RESULT:   101.704     14.544     18.032
REMARK INTER + INTRA:         112.368
REMARK INTER:                 111.622
REMARK INTRA:                   0.746
REMARK UNBOUND:                 1.746
REMARK SMILES C[C@H]1[C@H](C)CC[C@@]2(C(=O)[O-])CC[C@]3(C)C(=CC[C@@H]4[C@]5(C)CC[C@@H](O)C(C)(C)[C@H]5CC[C@@]43C)[C@H]12
REMARK SMILES IDX 7 1 6 2 11 3 33 4 5 5 12 6 15 7 2 8 3 9 13 10 16 11 1 12
REMARK SMILES IDX 4 13 14 14 31 15 17 16 18 17 30 18 32 19 19 20 29 21 28 22
REMARK SMILES IDX 21 23 20 24 25 25 22 26 23 27 26 28 27 29 8 30 9 31 10 32
REMARK SMILES IDX 24 33
REMARK H PARENT 24 34
REMARK Flexibility Score: inf
ROOT
ATOM      1  C   UNL     1     -14.675   2.013 -16.294  1.00  0.00     0.017 C 
ATOM      2  C   UNL     1     -14.827   3.542 -16.102  1.00  0.00     0.014 C 
ATOM      3  C   UNL     1     -13.271   1.579 -15.851  1.00  0.00     0.014 C 
ATOM      4  C   UNL     1     -15.703   1.326 -15.337  1.00  0.00     0.030 C 
ATOM      5  C   UNL     1     -16.239   4.008 -16.486  1.00  0.00     0.004 C 
ATOM      6  C   UNL     1     -13.041   0.090 -16.144  1.00  0.00     0.013 C 
ATOM      7  C   UNL     1     -15.368  -0.153 -15.003  1.00  0.00    -0.063 C 
ATOM      8  C   UNL     1     -17.180   1.708 -15.766  1.00  0.00    -0.003 C 
ATOM      9  C   UNL     1     -17.346   3.269 -15.700  1.00  0.00    -0.011 C 
ATOM     10  C   UNL     1     -14.113  -0.909 -15.531  1.00  0.00    -0.006 C 
ATOM     11  C   UNL     1     -16.004  -0.698 -13.948  1.00  0.00    -0.027 C 
ATOM     12  C   UNL     1     -18.286   1.015 -14.943  1.00  0.00     0.008 C 
ATOM     13  C   UNL     1     -18.715   3.739 -16.229  1.00  0.00     0.008 C 
ATOM     14  C   UNL     1     -14.609  -1.854 -16.667  1.00  0.00     0.017 C 
ATOM     15  C   UNL     1     -13.433  -1.789 -14.350  1.00  0.00    -0.020 C 
ATOM     16  C   UNL     1     -15.918  -2.143 -13.599  1.00  0.00     0.032 C 
ATOM     17  C   UNL     1     -14.502  -2.792 -13.708  1.00  0.00     0.006 C 
ATOM     18  C   UNL     1     -12.896  -0.831 -13.228  1.00  0.00     0.008 C 
ATOM     19  C   UNL     1     -12.225  -2.606 -14.948  1.00  0.00     0.012 C 
ATOM     20  C   UNL     1     -14.056  -3.521 -12.354  1.00  0.00    -0.025 C 
ATOM     21  C   UNL     1     -12.472  -1.526 -11.921  1.00  0.00     0.005 C 
ATOM     22  C   UNL     1     -13.604  -2.409 -11.335  1.00  0.00     0.003 C 
ATOM     23  C   UNL     1     -15.241  -4.395 -11.764  1.00  0.00     0.010 C 
ATOM     24  C   UNL     1     -12.905  -4.538 -12.638  1.00  0.00     0.012 C 
ATOM     25  C   UNL     1     -13.348  -2.887  -9.840  1.00  0.00    -0.006 C 
ATOM     26  C   UNL     1     -15.604  -4.057 -10.310  1.00  0.00     0.033 C 
ATOM     27  C   UNL     1     -14.343  -4.045  -9.429  1.00  0.00     0.120 C 
ATOM     28  C   UNL     1     -13.599  -1.691  -8.880  1.00  0.00     0.014 C 
ATOM     29  C   UNL     1     -11.875  -3.329  -9.599  1.00  0.00     0.014 C 
ENDROOT
BRANCH   1  30
ATOM     30  C   UNL     1     -14.823   1.715 -17.792  1.00  0.00     0.048 C 
ATOM     31  O   UNL     1     -15.202   0.595 -18.216  1.00  0.00    -0.550 OA
ATOM     32  O   UNL     1     -14.481   2.696 -18.721  1.00  0.00    -0.550 OA
ENDBRANCH   1  30
BRANCH  27  33
ATOM     33  O   UNL     1     -13.719  -5.304  -9.501  1.00  0.00    -0.393 OA
ATOM     34  H   UNL     1     -12.831  -5.176  -9.922  1.00  0.00     0.210 HD
ENDBRANCH  27  33
TORSDOF 2
ENDMDL
MODEL 4
REMARK VINA RESULT:   102.445     14.560     19.501
REMARK INTER + INTRA:         113.174
REMARK INTER:                 111.968
REMARK INTRA:                   1.206
REMARK UNBOUND:                 1.746
REMARK SMILES C[C@H]1[C@H](C)CC[C@@]2(C(=O)[O-])CC[C@]3(C)C(=CC[C@@H]4[C@]5(C)CC[C@@H](O)C(C)(C)[C@H]5CC[C@@]43C)[C@H]12
REMARK SMILES IDX 7 1 6 2 11 3 33 4 5 5 12 6 15 7 2 8 3 9 13 10 16 11 1 12
REMARK SMILES IDX 4 13 14 14 31 15 17 16 18 17 30 18 32 19 19 20 29 21 28 22
REMARK SMILES IDX 21 23 20 24 25 25 22 26 23 27 26 28 27 29 8 30 9 31 10 32
REMARK SMILES IDX 24 33
REMARK H PARENT 24 34
REMARK Flexibility Score: inf
ROOT
ATOM      1  C   UNL     1     -14.048  -3.874 -12.598  1.00  0.00     0.017 C 
ATOM      2  C   UNL     1     -14.658  -4.341 -11.253  1.00  0.00     0.014 C 
ATOM      3  C   UNL     1     -15.130  -3.896 -13.686  1.00  0.00     0.014 C 
ATOM      4  C   UNL     1     -13.603  -2.388 -12.408  1.00  0.00     0.030 C 
ATOM      5  C   UNL     1     -13.618  -4.282 -10.126  1.00  0.00     0.004 C 
ATOM      6  C   UNL     1     -14.531  -3.560 -15.059  1.00  0.00     0.013 C 
ATOM      7  C   UNL     1     -13.447  -1.598 -13.736  1.00  0.00    -0.063 C 
ATOM      8  C   UNL     1     -12.456  -2.302 -11.317  1.00  0.00    -0.003 C 
ATOM      9  C   UNL     1     -12.996  -2.878  -9.959  1.00  0.00    -0.011 C 
ATOM     10  C   UNL     1     -13.731  -2.192 -15.148  1.00  0.00    -0.006 C 
ATOM     11  C   UNL     1     -13.394  -0.256 -13.643  1.00  0.00    -0.027 C 
ATOM     12  C   UNL     1     -11.875  -0.888 -11.108  1.00  0.00     0.008 C 
ATOM     13  C   UNL     1     -11.904  -2.954  -8.875  1.00  0.00     0.008 C 
ATOM     14  C   UNL     1     -12.343  -2.476 -15.797  1.00  0.00     0.017 C 
ATOM     15  C   UNL     1     -14.552  -1.133 -16.062  1.00  0.00    -0.020 C 
ATOM     16  C   UNL     1     -13.085   0.632 -14.798  1.00  0.00     0.032 C 
ATOM     17  C   UNL     1     -13.769   0.260 -16.151  1.00  0.00     0.006 C 
ATOM     18  C   UNL     1     -15.966  -0.882 -15.429  1.00  0.00     0.008 C 
ATOM     19  C   UNL     1     -14.737  -1.736 -17.506  1.00  0.00     0.012 C 
ATOM     20  C   UNL     1     -14.584   1.485 -16.783  1.00  0.00    -0.025 C 
ATOM     21  C   UNL     1     -16.752   0.300 -16.028  1.00  0.00     0.005 C 
ATOM     22  C   UNL     1     -15.939   1.620 -15.993  1.00  0.00     0.003 C 
ATOM     23  C   UNL     1     -13.739   2.826 -16.710  1.00  0.00     0.010 C 
ATOM     24  C   UNL     1     -14.832   1.245 -18.307  1.00  0.00     0.012 C 
ATOM     25  C   UNL     1     -16.801   2.922 -16.292  1.00  0.00    -0.006 C 
ATOM     26  C   UNL     1     -14.462   3.983 -16.004  1.00  0.00     0.033 C 
ATOM     27  C   UNL     1     -15.875   4.170 -16.584  1.00  0.00     0.120 C 
ATOM     28  C   UNL     1     -17.657   3.257 -15.038  1.00  0.00     0.014 C 
ATOM     29  C   UNL     1     -17.811   2.714 -17.458  1.00  0.00     0.014 C 
ENDROOT
BRANCH   1  30
ATOM     30  C   UNL     1     -12.953  -4.877 -12.985  1.00  0.00     0.048 C 
ATOM     31  O   UNL     1     -11.875  -4.969 -12.346  1.00  0.00    -0.550 OA
ATOM     32  O   UNL     1     -13.130  -5.684 -14.107  1.00  0.00    -0.550 OA
ENDBRANCH   1  30
BRANCH  27  33
ATOM     33  O   UNL     1     -15.775   4.420 -17.965  1.00  0.00    -0.393 OA
ATOM     34  H   UNL     1     -16.547   4.985 -18.225  1.00  0.00     0.210 HD
ENDBRANCH  27  33
TORSDOF 2
ENDMDL
