MODEL 1
REMARK VINA RESULT:    -4.254      0.000      0.000
REMARK INTER + INTRA:          -5.277
REMARK INTER:                  -5.124
REMARK INTRA:                  -0.153
REMARK UNBOUND:                -0.153
REMARK SMILES Oc1cc(O)c2cc(O)c(-c3ccc(O)c(O)c3)[o+]c2c1.[Cl-]
REMARK SMILES IDX 10 1 19 2 20 3 21 4 2 5 3 6 4 7 6 8 7 9 8 10 11 11 12 12
REMARK SMILES IDX 13 13 14 14 18 15 16 16 15 17 17 19 9 21 1 23 5 25
REMARK H PARENT 15 18 17 20 9 22 1 24 5 26
REMARK Flexibility Score: inf
ROOT
ATOM      1  C   UNL     1       6.376   8.950  -3.898  1.00  0.00     0.402 A 
ATOM      2  O   UNL     1       6.815   8.982  -5.153  1.00  0.00    -0.202 OA
ATOM      3  C   UNL     1       6.009   9.002  -6.209  1.00  0.00     0.368 A 
ATOM      4  C   UNL     1       6.566   9.039  -7.491  1.00  0.00     0.162 A 
ATOM      5  C   UNL     1       5.743   9.064  -8.616  1.00  0.00     0.128 A 
ATOM      6  C   UNL     1       4.352   9.053  -8.463  1.00  0.00     0.093 A 
ATOM      7  C   UNL     1       3.769   9.017  -7.191  1.00  0.00     0.136 A 
ATOM      8  C   UNL     1       4.603   8.989  -6.043  1.00  0.00     0.125 A 
ATOM      9  C   UNL     1       4.107   8.938  -4.730  1.00  0.00     0.078 A 
ATOM     10  C   UNL     1       4.991   8.909  -3.648  1.00  0.00     0.223 A 
ENDROOT
BRANCH   1  11
ATOM     11  C   UNL     1       7.376   8.941  -2.806  1.00  0.00     0.087 A 
ATOM     12  C   UNL     1       7.365   9.967  -1.851  1.00  0.00     0.022 A 
ATOM     13  C   UNL     1       8.287   9.966  -0.803  1.00  0.00     0.051 A 
ATOM     14  C   UNL     1       9.226   8.937  -0.679  1.00  0.00     0.157 A 
ATOM     15  C   UNL     1       8.303   7.893  -2.672  1.00  0.00     0.068 A 
ATOM     16  C   UNL     1       9.230   7.882  -1.622  1.00  0.00     0.158 A 
BRANCH  14  17
ATOM     17  O   UNL     1      10.125   9.000   0.388  1.00  0.00    -0.504 OA
ATOM     18  H   UNL     1      10.585   8.193   0.787  1.00  0.00     0.293 HD
ENDBRANCH  14  17
BRANCH  16  19
ATOM     19  O   UNL     1      10.123   6.811  -1.551  1.00  0.00    -0.504 OA
ATOM     20  H   UNL     1      11.098   6.871  -1.809  1.00  0.00     0.293 HD
ENDBRANCH  16  19
ENDBRANCH   1  11
BRANCH  10  21
ATOM     21  O   UNL     1       4.502   8.807  -2.345  1.00  0.00    -0.500 OA
ATOM     22  H   UNL     1       3.535   9.015  -2.123  1.00  0.00     0.294 HD
ENDBRANCH  10  21
BRANCH   5  23
ATOM     23  O   UNL     1       6.317   9.100  -9.885  1.00  0.00    -0.507 OA
ATOM     24  H   UNL     1       7.307   8.932 -10.025  1.00  0.00     0.293 HD
ENDBRANCH   5  23
BRANCH   7  25
ATOM     25  O   UNL     1       2.373   9.012  -7.122  1.00  0.00    -0.507 OA
ATOM     26  H   UNL     1       1.803   9.840  -7.027  1.00  0.00     0.293 HD
ENDBRANCH   7  25
TORSDOF 6
ENDMDL
MODEL 2
REMARK VINA RESULT:    -4.063      1.597      3.114
REMARK INTER + INTRA:          -5.046
REMARK INTER:                  -5.513
REMARK INTRA:                   0.467
REMARK UNBOUND:                -0.153
REMARK SMILES Oc1cc(O)c2cc(O)c(-c3ccc(O)c(O)c3)[o+]c2c1.[Cl-]
REMARK SMILES IDX 10 1 19 2 20 3 21 4 2 5 3 6 4 7 6 8 7 9 8 10 11 11 12 12
REMARK SMILES IDX 13 13 14 14 18 15 16 16 15 17 17 19 9 21 1 23 5 25
REMARK H PARENT 15 18 17 20 9 22 1 24 5 26
REMARK Flexibility Score: inf
ROOT
ATOM      1  C   UNL     1       7.491   8.995  -3.610  1.00  0.00     0.402 A 
ATOM      2  O   UNL     1       6.219   9.120  -3.981  1.00  0.00    -0.202 OA
ATOM      3  C   UNL     1       5.813   9.021  -5.242  1.00  0.00     0.368 A 
ATOM      4  C   UNL     1       4.453   9.164  -5.532  1.00  0.00     0.162 A 
ATOM      5  C   UNL     1       3.998   9.061  -6.846  1.00  0.00     0.128 A 
ATOM      6  C   UNL     1       4.908   8.813  -7.881  1.00  0.00     0.093 A 
ATOM      7  C   UNL     1       6.274   8.665  -7.618  1.00  0.00     0.136 A 
ATOM      8  C   UNL     1       6.742   8.771  -6.281  1.00  0.00     0.125 A 
ATOM      9  C   UNL     1       8.094   8.651  -5.925  1.00  0.00     0.078 A 
ATOM     10  C   UNL     1       8.480   8.772  -4.587  1.00  0.00     0.223 A 
ENDROOT
BRANCH   1  11
ATOM     11  C   UNL     1       7.816   9.116  -2.171  1.00  0.00     0.087 A 
ATOM     12  C   UNL     1       9.119   8.844  -1.733  1.00  0.00     0.022 A 
ATOM     13  C   UNL     1       9.451   8.971  -0.382  1.00  0.00     0.051 A 
ATOM     14  C   UNL     1       8.497   9.385   0.552  1.00  0.00     0.157 A 
ATOM     15  C   UNL     1       6.860   9.554  -1.238  1.00  0.00     0.068 A 
ATOM     16  C   UNL     1       7.185   9.687   0.117  1.00  0.00     0.158 A 
BRANCH  14  17
ATOM     17  O   UNL     1       8.892   9.485   1.888  1.00  0.00    -0.504 OA
ATOM     18  H   UNL     1       9.851   9.592   2.186  1.00  0.00     0.293 HD
ENDBRANCH  14  17
BRANCH  16  19
ATOM     19  O   UNL     1       6.184  10.125   0.988  1.00  0.00    -0.504 OA
ATOM     20  H   UNL     1       6.256  10.090   1.995  1.00  0.00     0.293 HD
ENDBRANCH  16  19
ENDBRANCH   1  11
BRANCH  10  21
ATOM     21  O   UNL     1       9.829   8.703  -4.237  1.00  0.00    -0.500 OA
ATOM     22  H   UNL     1      10.278   9.439  -3.703  1.00  0.00     0.294 HD
ENDBRANCH  10  21
BRANCH   5  23
ATOM     23  O   UNL     1       2.639   9.207  -7.116  1.00  0.00    -0.507 OA
ATOM     24  H   UNL     1       2.022   8.406  -7.181  1.00  0.00     0.293 HD
ENDBRANCH   5  23
BRANCH   7  25
ATOM     25  O   UNL     1       7.117   8.416  -8.704  1.00  0.00    -0.507 OA
ATOM     26  H   UNL     1       6.814   8.388  -9.667  1.00  0.00     0.293 HD
ENDBRANCH   7  25
TORSDOF 6
ENDMDL
MODEL 3
REMARK VINA RESULT:    -3.700     15.058     17.833
REMARK INTER + INTRA:          -4.610
REMARK INTER:                  -4.568
REMARK INTRA:                  -0.042
REMARK UNBOUND:                -0.153
REMARK SMILES Oc1cc(O)c2cc(O)c(-c3ccc(O)c(O)c3)[o+]c2c1.[Cl-]
REMARK SMILES IDX 10 1 19 2 20 3 21 4 2 5 3 6 4 7 6 8 7 9 8 10 11 11 12 12
REMARK SMILES IDX 13 13 14 14 18 15 16 16 15 17 17 19 9 21 1 23 5 25
REMARK H PARENT 15 18 17 20 9 22 1 24 5 26
REMARK Flexibility Score: inf
ROOT
ATOM      1  C   UNL     1      -9.503   3.455  -6.658  1.00  0.00     0.402 A 
ATOM      2  O   UNL     1      -9.602   2.515  -5.721  1.00  0.00    -0.202 OA
ATOM      3  C   UNL     1      -9.772   1.226  -5.995  1.00  0.00     0.368 A 
ATOM      4  C   UNL     1      -9.862   0.312  -4.941  1.00  0.00     0.162 A 
ATOM      5  C   UNL     1     -10.036  -1.047  -5.199  1.00  0.00     0.128 A 
ATOM      6  C   UNL     1     -10.121  -1.500  -6.521  1.00  0.00     0.093 A 
ATOM      7  C   UNL     1     -10.034  -0.606  -7.594  1.00  0.00     0.136 A 
ATOM      8  C   UNL     1      -9.858   0.779  -7.335  1.00  0.00     0.125 A 
ATOM      9  C   UNL     1      -9.774   1.749  -8.347  1.00  0.00     0.078 A 
ATOM     10  C   UNL     1      -9.605   3.096  -8.015  1.00  0.00     0.223 A 
ENDROOT
BRANCH   1  11
ATOM     11  C   UNL     1      -9.306   4.857  -6.225  1.00  0.00     0.087 A 
ATOM     12  C   UNL     1     -10.086   5.373  -5.181  1.00  0.00     0.022 A 
ATOM     13  C   UNL     1      -9.903   6.686  -4.745  1.00  0.00     0.051 A 
ATOM     14  C   UNL     1      -8.930   7.504  -5.330  1.00  0.00     0.157 A 
ATOM     15  C   UNL     1      -8.312   5.668  -6.800  1.00  0.00     0.068 A 
ATOM     16  C   UNL     1      -8.119   6.986  -6.367  1.00  0.00     0.158 A 
BRANCH  14  17
ATOM     17  O   UNL     1      -8.803   8.810  -4.852  1.00  0.00    -0.504 OA
ATOM     18  H   UNL     1      -8.912   9.634  -5.426  1.00  0.00     0.293 HD
ENDBRANCH  14  17
BRANCH  16  19
ATOM     19  O   UNL     1      -7.116   7.735  -6.985  1.00  0.00    -0.504 OA
ATOM     20  H   UNL     1      -6.571   7.410  -7.771  1.00  0.00     0.293 HD
ENDBRANCH  16  19
ENDBRANCH   1  11
BRANCH  10  21
ATOM     21  O   UNL     1      -9.572   4.066  -9.017  1.00  0.00    -0.500 OA
ATOM     22  H   UNL     1      -9.781   3.841  -9.983  1.00  0.00     0.294 HD
ENDBRANCH  10  21
BRANCH   5  23
ATOM     23  O   UNL     1     -10.125  -1.942  -4.135  1.00  0.00    -0.507 OA
ATOM     24  H   UNL     1     -10.945  -1.980  -3.541  1.00  0.00     0.293 HD
ENDBRANCH   5  23
BRANCH   7  25
ATOM     25  O   UNL     1     -10.124  -1.137  -8.884  1.00  0.00    -0.507 OA
ATOM     26  H   UNL     1      -9.351  -1.201  -9.530  1.00  0.00     0.293 HD
ENDBRANCH   7  25
TORSDOF 6
ENDMDL
MODEL 4
REMARK VINA RESULT:    -3.506     15.294     17.160
REMARK INTER + INTRA:          -4.376
REMARK INTER:                  -4.514
REMARK INTRA:                   0.138
REMARK UNBOUND:                -0.153
REMARK SMILES Oc1cc(O)c2cc(O)c(-c3ccc(O)c(O)c3)[o+]c2c1.[Cl-]
REMARK SMILES IDX 10 1 19 2 20 3 21 4 2 5 3 6 4 7 6 8 7 9 8 10 11 11 12 12
REMARK SMILES IDX 13 13 14 14 18 15 16 16 15 17 17 19 9 21 1 23 5 25
REMARK H PARENT 15 18 17 20 9 22 1 24 5 26
REMARK Flexibility Score: inf
ROOT
ATOM      1  C   UNL     1      -8.794   3.846  -6.691  1.00  0.00     0.402 A 
ATOM      2  O   UNL     1      -9.240   4.775  -5.849  1.00  0.00    -0.202 OA
ATOM      3  C   UNL     1      -9.046   6.077  -6.029  1.00  0.00     0.368 A 
ATOM      4  C   UNL     1      -9.556   6.978  -5.090  1.00  0.00     0.162 A 
ATOM      5  C   UNL     1      -9.371   8.350  -5.255  1.00  0.00     0.128 A 
ATOM      6  C   UNL     1      -8.670   8.829  -6.368  1.00  0.00     0.093 A 
ATOM      7  C   UNL     1      -8.148   7.949  -7.323  1.00  0.00     0.136 A 
ATOM      8  C   UNL     1      -8.334   6.551  -7.157  1.00  0.00     0.125 A 
ATOM      9  C   UNL     1      -7.836   5.594  -8.056  1.00  0.00     0.078 A 
ATOM     10  C   UNL     1      -8.054   4.233  -7.824  1.00  0.00     0.223 A 
ENDROOT
BRANCH   1  11
ATOM     11  C   UNL     1      -9.084   2.427  -6.384  1.00  0.00     0.087 A 
ATOM     12  C   UNL     1      -9.176   2.014  -5.048  1.00  0.00     0.022 A 
ATOM     13  C   UNL     1      -9.467   0.685  -4.737  1.00  0.00     0.051 A 
ATOM     14  C   UNL     1      -9.686  -0.254  -5.751  1.00  0.00     0.157 A 
ATOM     15  C   UNL     1      -9.326   1.492  -7.405  1.00  0.00     0.068 A 
ATOM     16  C   UNL     1      -9.622   0.156  -7.103  1.00  0.00     0.158 A 
BRANCH  14  17
ATOM     17  O   UNL     1      -9.965  -1.569  -5.373  1.00  0.00    -0.504 OA
ATOM     18  H   UNL     1     -10.897  -1.959  -5.330  1.00  0.00     0.293 HD
ENDBRANCH  14  17
BRANCH  16  19
ATOM     19  O   UNL     1      -9.848  -0.718  -8.168  1.00  0.00    -0.504 OA
ATOM     20  H   UNL     1      -9.628  -0.505  -9.131  1.00  0.00     0.293 HD
ENDBRANCH  16  19
ENDBRANCH   1  11
BRANCH  10  21
ATOM     21  O   UNL     1      -7.517   3.279  -8.688  1.00  0.00    -0.500 OA
ATOM     22  H   UNL     1      -6.591   3.384  -9.086  1.00  0.00     0.294 HD
ENDBRANCH  10  21
BRANCH   5  23
ATOM     23  O   UNL     1      -9.886   9.232  -4.308  1.00  0.00    -0.507 OA
ATOM     24  H   UNL     1      -9.539   9.250  -3.356  1.00  0.00     0.293 HD
ENDBRANCH   5  23
BRANCH   7  25
ATOM     25  O   UNL     1      -7.465   8.505  -8.407  1.00  0.00    -0.507 OA
ATOM     26  H   UNL     1      -7.894   8.754  -9.287  1.00  0.00     0.293 HD
ENDBRANCH   7  25
TORSDOF 6
ENDMDL
MODEL 5
REMARK VINA RESULT:    -3.460      1.756      2.431
REMARK INTER + INTRA:          -4.320
REMARK INTER:                  -4.564
REMARK INTRA:                   0.243
REMARK UNBOUND:                -0.153
REMARK SMILES Oc1cc(O)c2cc(O)c(-c3ccc(O)c(O)c3)[o+]c2c1.[Cl-]
REMARK SMILES IDX 10 1 19 2 20 3 21 4 2 5 3 6 4 7 6 8 7 9 8 10 11 11 12 12
REMARK SMILES IDX 13 13 14 14 18 15 16 16 15 17 17 19 9 21 1 23 5 25
REMARK H PARENT 15 18 17 20 9 22 1 24 5 26
REMARK Flexibility Score: inf
ROOT
ATOM      1  C   UNL     1       7.214   9.059  -3.231  1.00  0.00     0.402 A 
ATOM      2  O   UNL     1       8.078   9.212  -4.232  1.00  0.00    -0.202 OA
ATOM      3  C   UNL     1       7.736   9.118  -5.512  1.00  0.00     0.368 A 
ATOM      4  C   UNL     1       8.715   9.298  -6.493  1.00  0.00     0.162 A 
ATOM      5  C   UNL     1       8.384   9.209  -7.845  1.00  0.00     0.128 A 
ATOM      6  C   UNL     1       7.064   8.938  -8.223  1.00  0.00     0.093 A 
ATOM      7  C   UNL     1       6.064   8.754  -7.260  1.00  0.00     0.136 A 
ATOM      8  C   UNL     1       6.398   8.842  -5.883  1.00  0.00     0.125 A 
ATOM      9  C   UNL     1       5.465   8.658  -4.850  1.00  0.00     0.078 A 
ATOM     10  C   UNL     1       5.869   8.756  -3.516  1.00  0.00     0.223 A 
ENDROOT
BRANCH   1  11
ATOM     11  C   UNL     1       7.716   9.197  -1.846  1.00  0.00     0.087 A 
ATOM     12  C   UNL     1       9.080   9.002  -1.583  1.00  0.00     0.022 A 
ATOM     13  C   UNL     1       9.577   9.146  -0.286  1.00  0.00     0.051 A 
ATOM     14  C   UNL     1       8.729   9.501   0.768  1.00  0.00     0.157 A 
ATOM     15  C   UNL     1       6.866   9.575  -0.792  1.00  0.00     0.068 A 
ATOM     16  C   UNL     1       7.357   9.725   0.511  1.00  0.00     0.158 A 
BRANCH  14  17
ATOM     17  O   UNL     1       9.289   9.621   2.042  1.00  0.00    -0.504 OA
ATOM     18  H   UNL     1       8.770   9.499   2.900  1.00  0.00     0.293 HD
ENDBRANCH  14  17
BRANCH  16  19
ATOM     19  O   UNL     1       6.454  10.101   1.508  1.00  0.00    -0.504 OA
ATOM     20  H   UNL     1       6.724  10.359   2.447  1.00  0.00     0.293 HD
ENDBRANCH  16  19
ENDBRANCH   1  11
BRANCH  10  21
ATOM     21  O   UNL     1       4.955   8.524  -2.487  1.00  0.00    -0.500 OA
ATOM     22  H   UNL     1       5.229   8.064  -1.626  1.00  0.00     0.294 HD
ENDBRANCH  10  21
BRANCH   5  23
ATOM     23  O   UNL     1       9.374   9.391  -8.808  1.00  0.00    -0.507 OA
ATOM     24  H   UNL     1      10.347   9.514  -8.551  1.00  0.00     0.293 HD
ENDBRANCH   5  23
BRANCH   7  25
ATOM     25  O   UNL     1       4.771   8.491  -7.718  1.00  0.00    -0.507 OA
ATOM     26  H   UNL     1       4.195   9.154  -8.217  1.00  0.00     0.293 HD
ENDBRANCH   7  25
TORSDOF 6
ENDMDL
MODEL 6
REMARK VINA RESULT:    -3.418     14.909     17.384
REMARK INTER + INTRA:          -4.270
REMARK INTER:                  -4.253
REMARK INTRA:                  -0.017
REMARK UNBOUND:                -0.153
REMARK SMILES Oc1cc(O)c2cc(O)c(-c3ccc(O)c(O)c3)[o+]c2c1.[Cl-]
REMARK SMILES IDX 10 1 19 2 20 3 21 4 2 5 3 6 4 7 6 8 7 9 8 10 11 11 12 12
REMARK SMILES IDX 13 13 14 14 18 15 16 16 15 17 17 19 9 21 1 23 5 25
REMARK H PARENT 15 18 17 20 9 22 1 24 5 26
REMARK Flexibility Score: inf
ROOT
ATOM      1  C   UNL     1      -9.363   3.769  -5.823  1.00  0.00     0.402 A 
ATOM      2  O   UNL     1      -9.490   3.237  -7.035  1.00  0.00    -0.202 OA
ATOM      3  C   UNL     1      -9.675   1.938  -7.247  1.00  0.00     0.368 A 
ATOM      4  C   UNL     1      -9.801   1.474  -8.559  1.00  0.00     0.162 A 
ATOM      5  C   UNL     1      -9.999   0.116  -8.810  1.00  0.00     0.128 A 
ATOM      6  C   UNL     1     -10.072  -0.787  -7.743  1.00  0.00     0.093 A 
ATOM      7  C   UNL     1      -9.949  -0.347  -6.420  1.00  0.00     0.136 A 
ATOM      8  C   UNL     1      -9.745   1.034  -6.160  1.00  0.00     0.125 A 
ATOM      9  C   UNL     1      -9.597   1.562  -4.868  1.00  0.00     0.078 A 
ATOM     10  C   UNL     1      -9.395   2.934  -4.690  1.00  0.00     0.223 A 
ENDROOT
BRANCH   1  11
ATOM     11  C   UNL     1      -9.171   5.234  -5.718  1.00  0.00     0.087 A 
ATOM     12  C   UNL     1      -9.957   5.970  -4.820  1.00  0.00     0.022 A 
ATOM     13  C   UNL     1      -9.779   7.349  -4.692  1.00  0.00     0.051 A 
ATOM     14  C   UNL     1      -8.806   8.016  -5.444  1.00  0.00     0.157 A 
ATOM     15  C   UNL     1      -8.177   5.897  -6.458  1.00  0.00     0.068 A 
ATOM     16  C   UNL     1      -7.989   7.280  -6.333  1.00  0.00     0.158 A 
BRANCH  14  17
ATOM     17  O   UNL     1      -8.684   9.397  -5.274  1.00  0.00    -0.504 OA
ATOM     18  H   UNL     1      -9.381   9.974  -4.824  1.00  0.00     0.293 HD
ENDBRANCH  14  17
BRANCH  16  19
ATOM     19  O   UNL     1      -6.985   7.873  -7.101  1.00  0.00    -0.504 OA
ATOM     20  H   UNL     1      -7.157   8.548  -7.833  1.00  0.00     0.293 HD
ENDBRANCH  16  19
ENDBRANCH   1  11
BRANCH  10  21
ATOM     21  O   UNL     1      -9.197   3.454  -3.411  1.00  0.00    -0.500 OA
ATOM     22  H   UNL     1      -8.541   4.206  -3.238  1.00  0.00     0.294 HD
ENDBRANCH  10  21
BRANCH   5  23
ATOM     23  O   UNL     1     -10.123  -0.327 -10.125  1.00  0.00    -0.507 OA
ATOM     24  H   UNL     1     -11.014  -0.317 -10.607  1.00  0.00     0.293 HD
ENDBRANCH   5  23
BRANCH   7  25
ATOM     25  O   UNL     1     -10.037  -1.310  -5.411  1.00  0.00    -0.507 OA
ATOM     26  H   UNL     1     -10.900  -1.727  -5.093  1.00  0.00     0.293 HD
ENDBRANCH   7  25
TORSDOF 6
ENDMDL
MODEL 7
REMARK VINA RESULT:    -3.240     14.628     17.261
REMARK INTER + INTRA:          -4.056
REMARK INTER:                  -3.737
REMARK INTRA:                  -0.319
REMARK UNBOUND:                -0.153
REMARK SMILES Oc1cc(O)c2cc(O)c(-c3ccc(O)c(O)c3)[o+]c2c1.[Cl-]
REMARK SMILES IDX 10 1 19 2 20 3 21 4 2 5 3 6 4 7 6 8 7 9 8 10 11 11 12 12
REMARK SMILES IDX 13 13 14 14 18 15 16 16 15 17 17 19 9 21 1 23 5 25
REMARK H PARENT 15 18 17 20 9 22 1 24 5 26
REMARK Flexibility Score: inf
ROOT
ATOM      1  C   UNL     1      -9.191   4.636  -6.946  1.00  0.00     0.402 A 
ATOM      2  O   UNL     1      -9.155   3.700  -7.892  1.00  0.00    -0.202 OA
ATOM      3  C   UNL     1      -9.305   2.404  -7.643  1.00  0.00     0.368 A 
ATOM      4  C   UNL     1      -9.254   1.496  -8.704  1.00  0.00     0.162 A 
ATOM      5  C   UNL     1      -9.413   0.130  -8.472  1.00  0.00     0.128 A 
ATOM      6  C   UNL     1      -9.625  -0.335  -7.169  1.00  0.00     0.093 A 
ATOM      7  C   UNL     1      -9.680   0.553  -6.088  1.00  0.00     0.136 A 
ATOM      8  C   UNL     1      -9.517   1.944  -6.320  1.00  0.00     0.125 A 
ATOM      9  C   UNL     1      -9.544   2.905  -5.298  1.00  0.00     0.078 A 
ATOM     10  C   UNL     1      -9.372   4.258  -5.603  1.00  0.00     0.223 A 
ENDROOT
BRANCH   1  11
ATOM     11  C   UNL     1      -9.020   6.049  -7.353  1.00  0.00     0.087 A 
ATOM     12  C   UNL     1     -10.125   6.770  -7.826  1.00  0.00     0.022 A 
ATOM     13  C   UNL     1      -9.988   8.109  -8.197  1.00  0.00     0.051 A 
ATOM     14  C   UNL     1      -8.754   8.758  -8.089  1.00  0.00     0.157 A 
ATOM     15  C   UNL     1      -7.783   6.704  -7.223  1.00  0.00     0.068 A 
ATOM     16  C   UNL     1      -7.637   8.048  -7.589  1.00  0.00     0.158 A 
BRANCH  14  17
ATOM     17  O   UNL     1      -8.683  10.096  -8.484  1.00  0.00    -0.504 OA
ATOM     18  H   UNL     1      -9.332  10.808  -8.181  1.00  0.00     0.293 HD
ENDBRANCH  14  17
BRANCH  16  19
ATOM     19  O   UNL     1      -6.379   8.633  -7.435  1.00  0.00    -0.504 OA
ATOM     20  H   UNL     1      -6.189   9.614  -7.587  1.00  0.00     0.293 HD
ENDBRANCH  16  19
ENDBRANCH   1  11
BRANCH  10  21
ATOM     21  O   UNL     1      -9.348   5.210  -4.582  1.00  0.00    -0.500 OA
ATOM     22  H   UNL     1     -10.051   5.936  -4.517  1.00  0.00     0.294 HD
ENDBRANCH  10  21
BRANCH   5  23
ATOM     23  O   UNL     1      -9.359  -0.759  -9.543  1.00  0.00    -0.507 OA
ATOM     24  H   UNL     1      -8.479  -1.015  -9.975  1.00  0.00     0.293 HD
ENDBRANCH   5  23
BRANCH   7  25
ATOM     25  O   UNL     1      -9.899   0.010  -4.819  1.00  0.00    -0.507 OA
ATOM     26  H   UNL     1     -10.458  -0.811  -4.638  1.00  0.00     0.293 HD
ENDBRANCH   7  25
TORSDOF 6
ENDMDL
