MODEL 1
REMARK VINA RESULT:    -4.923      0.000      0.000
REMARK INTER + INTRA:          -6.018
REMARK INTER:                  -5.787
REMARK INTRA:                  -0.231
REMARK UNBOUND:                -0.231
REMARK SMILES O=C([O-])C=Cc1ccc(O)c(O)c1
REMARK SMILES IDX 6 1 13 2 7 3 11 4 8 5 9 6 5 7 4 8 2 9 1 10 3 11 12 12 10 14
REMARK H PARENT 12 13 10 15
REMARK Flexibility Score: inf
ROOT
ATOM      1  C   UNL     1      27.966   9.821 -34.093  1.00  0.00    -0.022 A 
ATOM      2  C   UNL     1      28.037  11.043 -33.411  1.00  0.00     0.058 A 
ATOM      3  C   UNL     1      27.571   8.666 -33.396  1.00  0.00     0.012 A 
ATOM      4  C   UNL     1      27.768  11.108 -32.036  1.00  0.00     0.157 A 
ATOM      5  C   UNL     1      27.302   8.728 -32.026  1.00  0.00     0.051 A 
ATOM      6  C   UNL     1      27.403   9.942 -31.341  1.00  0.00     0.157 A 
ENDROOT
BRANCH   1   7
ATOM      7  C   UNL     1      28.202   9.790 -35.552  1.00  0.00     0.010 C 
ATOM      8  C   UNL     1      29.382   9.547 -36.142  1.00  0.00     0.025 C 
BRANCH   8   9
ATOM      9  C   UNL     1      30.682   9.456 -35.452  1.00  0.00     0.064 C 
ATOM     10  O   UNL     1      31.338   8.383 -35.513  1.00  0.00    -0.545 OA
ATOM     11  O   UNL     1      31.235  10.550 -34.796  1.00  0.00    -0.545 OA
ENDBRANCH   8   9
ENDBRANCH   1   7
BRANCH   4  12
ATOM     12  O   UNL     1      27.860  12.325 -31.361  1.00  0.00    -0.504 OA
ATOM     13  H   UNL     1      28.422  13.088 -31.716  1.00  0.00     0.293 HD
ENDBRANCH   4  12
BRANCH   6  14
ATOM     14  O   UNL     1      27.133   9.973 -29.973  1.00  0.00    -0.504 OA
ATOM     15  H   UNL     1      27.518  10.686 -29.364  1.00  0.00     0.293 HD
ENDBRANCH   6  14
TORSDOF 4
ENDMDL
MODEL 2
REMARK VINA RESULT:    -4.851     11.218     13.109
REMARK INTER + INTRA:          -5.933
REMARK INTER:                  -5.807
REMARK INTRA:                  -0.126
REMARK UNBOUND:                -0.231
REMARK SMILES O=C([O-])C=Cc1ccc(O)c(O)c1
REMARK SMILES IDX 6 1 13 2 7 3 11 4 8 5 9 6 5 7 4 8 2 9 1 10 3 11 12 12 10 14
REMARK H PARENT 12 13 10 15
REMARK Flexibility Score: inf
ROOT
ATOM      1  C   UNL     1      32.107   7.838 -21.468  1.00  0.00    -0.022 A 
ATOM      2  C   UNL     1      30.940   7.456 -20.795  1.00  0.00     0.058 A 
ATOM      3  C   UNL     1      32.259   7.506 -22.825  1.00  0.00     0.012 A 
ATOM      4  C   UNL     1      29.953   6.704 -21.450  1.00  0.00     0.157 A 
ATOM      5  C   UNL     1      31.280   6.758 -23.481  1.00  0.00     0.051 A 
ATOM      6  C   UNL     1      30.128   6.350 -22.800  1.00  0.00     0.157 A 
ENDROOT
BRANCH   1   7
ATOM      7  C   UNL     1      33.105   8.675 -20.769  1.00  0.00     0.010 C 
ATOM      8  C   UNL     1      34.403   8.371 -20.616  1.00  0.00     0.025 C 
BRANCH   8   9
ATOM      9  C   UNL     1      35.024   7.075 -20.947  1.00  0.00     0.064 C 
ATOM     10  O   UNL     1      35.765   6.987 -21.960  1.00  0.00    -0.545 OA
ATOM     11  O   UNL     1      34.868   5.964 -20.126  1.00  0.00    -0.545 OA
ENDBRANCH   8   9
ENDBRANCH   1   7
BRANCH   4  12
ATOM     12  O   UNL     1      28.803   6.311 -20.769  1.00  0.00    -0.504 OA
ATOM     13  H   UNL     1      28.542   6.728 -19.884  1.00  0.00     0.293 HD
ENDBRANCH   4  12
BRANCH   6  14
ATOM     14  O   UNL     1      29.168   5.601 -23.479  1.00  0.00    -0.504 OA
ATOM     15  H   UNL     1      29.148   5.542 -24.491  1.00  0.00     0.293 HD
ENDBRANCH   6  14
TORSDOF 4
ENDMDL
MODEL 3
REMARK VINA RESULT:    -4.841      1.790      2.714
REMARK INTER + INTRA:          -5.922
REMARK INTER:                  -5.655
REMARK INTRA:                  -0.266
REMARK UNBOUND:                -0.231
REMARK SMILES O=C([O-])C=Cc1ccc(O)c(O)c1
REMARK SMILES IDX 6 1 13 2 7 3 11 4 8 5 9 6 5 7 4 8 2 9 1 10 3 11 12 12 10 14
REMARK H PARENT 12 13 10 15
REMARK Flexibility Score: inf
ROOT
ATOM      1  C   UNL     1      29.680  10.341 -33.700  1.00  0.00    -0.022 A 
ATOM      2  C   UNL     1      28.479   9.942 -33.098  1.00  0.00     0.058 A 
ATOM      3  C   UNL     1      30.133  11.659 -33.524  1.00  0.00     0.012 A 
ATOM      4  C   UNL     1      27.708  10.861 -32.371  1.00  0.00     0.157 A 
ATOM      5  C   UNL     1      29.368  12.577 -32.801  1.00  0.00     0.051 A 
ATOM      6  C   UNL     1      28.154  12.186 -32.226  1.00  0.00     0.157 A 
ENDROOT
BRANCH   1   7
ATOM      7  C   UNL     1      30.499   9.339 -34.415  1.00  0.00     0.010 C 
ATOM      8  C   UNL     1      30.409   9.053 -35.722  1.00  0.00     0.025 C 
BRANCH   8   9
ATOM      9  C   UNL     1      29.360   9.543 -36.636  1.00  0.00     0.064 C 
ATOM     10  O   UNL     1      28.397   8.789 -36.930  1.00  0.00    -0.545 OA
ATOM     11  O   UNL     1      29.373  10.845 -37.124  1.00  0.00    -0.545 OA
ENDBRANCH   8   9
ENDBRANCH   1   7
BRANCH   4  12
ATOM     12  O   UNL     1      26.505  10.462 -31.790  1.00  0.00    -0.504 OA
ATOM     13  H   UNL     1      26.368   9.520 -31.446  1.00  0.00     0.293 HD
ENDBRANCH   4  12
BRANCH   6  14
ATOM     14  O   UNL     1      27.409  13.125 -31.512  1.00  0.00    -0.504 OA
ATOM     15  H   UNL     1      27.807  14.003 -31.201  1.00  0.00     0.293 HD
ENDBRANCH   6  14
TORSDOF 4
ENDMDL
MODEL 4
REMARK VINA RESULT:    -4.806      1.980      5.081
REMARK INTER + INTRA:          -5.880
REMARK INTER:                  -5.623
REMARK INTRA:                  -0.257
REMARK UNBOUND:                -0.231
REMARK SMILES O=C([O-])C=Cc1ccc(O)c(O)c1
REMARK SMILES IDX 6 1 13 2 7 3 11 4 8 5 9 6 5 7 4 8 2 9 1 10 3 11 12 12 10 14
REMARK H PARENT 12 13 10 15
REMARK Flexibility Score: inf
ROOT
ATOM      1  C   UNL     1      29.617  11.726 -34.166  1.00  0.00    -0.022 A 
ATOM      2  C   UNL     1      30.131  10.487 -33.763  1.00  0.00     0.058 A 
ATOM      3  C   UNL     1      29.114  11.871 -35.471  1.00  0.00     0.012 A 
ATOM      4  C   UNL     1      30.194   9.414 -34.666  1.00  0.00     0.157 A 
ATOM      5  C   UNL     1      29.174  10.806 -36.371  1.00  0.00     0.051 A 
ATOM      6  C   UNL     1      29.716   9.578 -35.978  1.00  0.00     0.157 A 
ENDROOT
BRANCH   1   7
ATOM      7  C   UNL     1      29.513  12.823 -33.180  1.00  0.00     0.010 C 
ATOM      8  C   UNL     1      28.584  12.916 -32.218  1.00  0.00     0.025 C 
BRANCH   8   9
ATOM      9  C   UNL     1      27.397  12.051 -32.087  1.00  0.00     0.064 C 
ATOM     10  O   UNL     1      26.382  12.285 -32.793  1.00  0.00    -0.545 OA
ATOM     11  O   UNL     1      27.398  10.937 -31.254  1.00  0.00    -0.545 OA
ENDBRANCH   8   9
ENDBRANCH   1   7
BRANCH   4  12
ATOM     12  O   UNL     1      30.724   8.190 -34.263  1.00  0.00    -0.504 OA
ATOM     13  H   UNL     1      31.165   7.560 -34.922  1.00  0.00     0.293 HD
ENDBRANCH   4  12
BRANCH   6  14
ATOM     14  O   UNL     1      29.767   8.532 -36.899  1.00  0.00    -0.504 OA
ATOM     15  H   UNL     1      30.616   8.295 -37.398  1.00  0.00     0.293 HD
ENDBRANCH   6  14
TORSDOF 4
ENDMDL
MODEL 5
REMARK VINA RESULT:    -4.761     11.868     12.686
REMARK INTER + INTRA:          -5.827
REMARK INTER:                  -5.580
REMARK INTRA:                  -0.247
REMARK UNBOUND:                -0.231
REMARK SMILES O=C([O-])C=Cc1ccc(O)c(O)c1
REMARK SMILES IDX 6 1 13 2 7 3 11 4 8 5 9 6 5 7 4 8 2 9 1 10 3 11 12 12 10 14
REMARK H PARENT 12 13 10 15
REMARK Flexibility Score: inf
ROOT
ATOM      1  C   UNL     1      32.442   6.930 -22.846  1.00  0.00    -0.022 A 
ATOM      2  C   UNL     1      32.246   7.494 -21.579  1.00  0.00     0.058 A 
ATOM      3  C   UNL     1      31.387   6.233 -23.461  1.00  0.00     0.012 A 
ATOM      4  C   UNL     1      31.027   7.323 -20.904  1.00  0.00     0.157 A 
ATOM      5  C   UNL     1      30.173   6.061 -22.792  1.00  0.00     0.051 A 
ATOM      6  C   UNL     1      29.988   6.598 -21.514  1.00  0.00     0.157 A 
ENDROOT
BRANCH   1   7
ATOM      7  C   UNL     1      33.716   7.171 -23.557  1.00  0.00     0.010 C 
ATOM      8  C   UNL     1      34.837   6.449 -23.408  1.00  0.00     0.025 C 
BRANCH   8   9
ATOM      9  C   UNL     1      35.058   5.412 -22.382  1.00  0.00     0.064 C 
ATOM     10  O   UNL     1      35.401   5.757 -21.221  1.00  0.00    -0.545 OA
ATOM     11  O   UNL     1      34.827   4.067 -22.646  1.00  0.00    -0.545 OA
ENDBRANCH   8   9
ENDBRANCH   1   7
BRANCH   4  12
ATOM     12  O   UNL     1      30.846   7.871 -19.635  1.00  0.00    -0.504 OA
ATOM     13  H   UNL     1      29.923   7.994 -19.238  1.00  0.00     0.293 HD
ENDBRANCH   4  12
BRANCH   6  14
ATOM     14  O   UNL     1      28.767   6.407 -20.869  1.00  0.00    -0.504 OA
ATOM     15  H   UNL     1      28.639   6.616 -19.886  1.00  0.00     0.293 HD
ENDBRANCH   6  14
TORSDOF 4
ENDMDL
MODEL 6
REMARK VINA RESULT:    -4.734     11.077     12.579
REMARK INTER + INTRA:          -5.796
REMARK INTER:                  -5.550
REMARK INTRA:                  -0.246
REMARK UNBOUND:                -0.231
REMARK SMILES O=C([O-])C=Cc1ccc(O)c(O)c1
REMARK SMILES IDX 6 1 13 2 7 3 11 4 8 5 9 6 5 7 4 8 2 9 1 10 3 11 12 12 10 14
REMARK H PARENT 12 13 10 15
REMARK Flexibility Score: inf
ROOT
ATOM      1  C   UNL     1      32.623   7.198 -23.211  1.00  0.00    -0.022 A 
ATOM      2  C   UNL     1      31.820   7.597 -22.135  1.00  0.00     0.058 A 
ATOM      3  C   UNL     1      34.018   7.137 -23.044  1.00  0.00     0.012 A 
ATOM      4  C   UNL     1      32.401   7.984 -20.918  1.00  0.00     0.157 A 
ATOM      5  C   UNL     1      34.599   7.521 -21.833  1.00  0.00     0.051 A 
ATOM      6  C   UNL     1      33.798   7.949 -20.770  1.00  0.00     0.157 A 
ENDROOT
BRANCH   1   7
ATOM      7  C   UNL     1      31.983   6.745 -24.464  1.00  0.00     0.010 C 
ATOM      8  C   UNL     1      31.434   5.537 -24.663  1.00  0.00     0.025 C 
BRANCH   8   9
ATOM      9  C   UNL     1      31.534   4.389 -23.742  1.00  0.00     0.064 C 
ATOM     10  O   UNL     1      30.494   3.954 -23.184  1.00  0.00    -0.545 OA
ATOM     11  O   UNL     1      32.741   3.730 -23.533  1.00  0.00    -0.545 OA
ENDBRANCH   8   9
ENDBRANCH   1   7
BRANCH   4  12
ATOM     12  O   UNL     1      31.596   8.398 -19.857  1.00  0.00    -0.504 OA
ATOM     13  H   UNL     1      30.637   8.690 -20.001  1.00  0.00     0.293 HD
ENDBRANCH   4  12
BRANCH   6  14
ATOM     14  O   UNL     1      34.407   8.330 -19.574  1.00  0.00    -0.504 OA
ATOM     15  H   UNL     1      34.731   9.276 -19.412  1.00  0.00     0.293 HD
ENDBRANCH   6  14
TORSDOF 4
ENDMDL
MODEL 7
REMARK VINA RESULT:    -4.734      2.223      3.207
REMARK INTER + INTRA:          -5.796
REMARK INTER:                  -5.535
REMARK INTRA:                  -0.261
REMARK UNBOUND:                -0.231
REMARK SMILES O=C([O-])C=Cc1ccc(O)c(O)c1
REMARK SMILES IDX 6 1 13 2 7 3 11 4 8 5 9 6 5 7 4 8 2 9 1 10 3 11 12 12 10 14
REMARK H PARENT 12 13 10 15
REMARK Flexibility Score: inf
ROOT
ATOM      1  C   UNL     1      28.277  11.949 -32.754  1.00  0.00    -0.022 A 
ATOM      2  C   UNL     1      27.656  10.793 -32.265  1.00  0.00     0.058 A 
ATOM      3  C   UNL     1      27.522  13.125 -32.905  1.00  0.00     0.012 A 
ATOM      4  C   UNL     1      26.283  10.789 -31.978  1.00  0.00     0.157 A 
ATOM      5  C   UNL     1      26.155  13.125 -32.620  1.00  0.00     0.051 A 
ATOM      6  C   UNL     1      25.529  11.962 -32.161  1.00  0.00     0.157 A 
ENDROOT
BRANCH   1   7
ATOM      7  C   UNL     1      29.735  11.940 -32.998  1.00  0.00     0.010 C 
ATOM      8  C   UNL     1      30.329  11.568 -34.142  1.00  0.00     0.025 C 
BRANCH   8   9
ATOM      9  C   UNL     1      29.655  10.929 -35.288  1.00  0.00     0.064 C 
ATOM     10  O   UNL     1      29.320  11.631 -36.277  1.00  0.00    -0.545 OA
ATOM     11  O   UNL     1      29.446   9.555 -35.333  1.00  0.00    -0.545 OA
ENDBRANCH   8   9
ENDBRANCH   1   7
BRANCH   4  12
ATOM     12  O   UNL     1      25.667   9.629 -31.509  1.00  0.00    -0.504 OA
ATOM     13  H   UNL     1      25.366   9.540 -30.547  1.00  0.00     0.293 HD
ENDBRANCH   4  12
BRANCH   6  14
ATOM     14  O   UNL     1      24.161  11.990 -31.888  1.00  0.00    -0.504 OA
ATOM     15  H   UNL     1      23.467  11.767 -32.591  1.00  0.00     0.293 HD
ENDBRANCH   6  14
TORSDOF 4
ENDMDL
MODEL 8
REMARK VINA RESULT:    -4.640     10.815     12.734
REMARK INTER + INTRA:          -5.685
REMARK INTER:                  -5.700
REMARK INTRA:                   0.015
REMARK UNBOUND:                -0.231
REMARK SMILES O=C([O-])C=Cc1ccc(O)c(O)c1
REMARK SMILES IDX 6 1 13 2 7 3 11 4 8 5 9 6 5 7 4 8 2 9 1 10 3 11 12 12 10 14
REMARK H PARENT 12 13 10 15
REMARK Flexibility Score: inf
ROOT
ATOM      1  C   UNL     1      31.847   7.903 -21.564  1.00  0.00    -0.022 A 
ATOM      2  C   UNL     1      32.024   7.466 -22.883  1.00  0.00     0.058 A 
ATOM      3  C   UNL     1      30.689   7.525 -20.863  1.00  0.00     0.012 A 
ATOM      4  C   UNL     1      31.032   6.704 -23.520  1.00  0.00     0.157 A 
ATOM      5  C   UNL     1      29.700   6.767 -21.494  1.00  0.00     0.051 A 
ATOM      6  C   UNL     1      29.863   6.357 -22.821  1.00  0.00     0.157 A 
ENDROOT
BRANCH   1   7
ATOM      7  C   UNL     1      32.931   8.658 -20.900  1.00  0.00     0.010 C 
ATOM      8  C   UNL     1      34.215   8.278 -20.835  1.00  0.00     0.025 C 
BRANCH   8   9
ATOM      9  C   UNL     1      34.740   6.961 -21.244  1.00  0.00     0.064 C 
ATOM     10  O   UNL     1      35.494   6.883 -22.248  1.00  0.00    -0.545 OA
ATOM     11  O   UNL     1      34.481   5.814 -20.502  1.00  0.00    -0.545 OA
ENDBRANCH   8   9
ENDBRANCH   1   7
BRANCH   4  12
ATOM     12  O   UNL     1      31.207   6.289 -24.840  1.00  0.00    -0.504 OA
ATOM     13  H   UNL     1      31.486   5.343 -25.066  1.00  0.00     0.293 HD
ENDBRANCH   4  12
BRANCH   6  14
ATOM     14  O   UNL     1      28.858   5.603 -23.426  1.00  0.00    -0.504 OA
ATOM     15  H   UNL     1      28.504   4.748 -23.014  1.00  0.00     0.293 HD
ENDBRANCH   6  14
TORSDOF 4
ENDMDL
MODEL 9
REMARK VINA RESULT:    -4.601      1.237      2.239
REMARK INTER + INTRA:          -5.639
REMARK INTER:                  -5.401
REMARK INTRA:                  -0.239
REMARK UNBOUND:                -0.231
REMARK SMILES O=C([O-])C=Cc1ccc(O)c(O)c1
REMARK SMILES IDX 6 1 13 2 7 3 11 4 8 5 9 6 5 7 4 8 2 9 1 10 3 11 12 12 10 14
REMARK H PARENT 12 13 10 15
REMARK Flexibility Score: inf
ROOT
ATOM      1  C   UNL     1      27.788  10.625 -33.807  1.00  0.00    -0.022 A 
ATOM      2  C   UNL     1      27.460   9.282 -33.576  1.00  0.00     0.058 A 
ATOM      3  C   UNL     1      27.845  11.516 -32.722  1.00  0.00     0.012 A 
ATOM      4  C   UNL     1      27.140   8.839 -32.284  1.00  0.00     0.157 A 
ATOM      5  C   UNL     1      27.527  11.078 -31.434  1.00  0.00     0.051 A 
ATOM      6  C   UNL     1      27.170   9.745 -31.209  1.00  0.00     0.157 A 
ENDROOT
BRANCH   1   7
ATOM      7  C   UNL     1      28.173  11.052 -35.169  1.00  0.00     0.010 C 
ATOM      8  C   UNL     1      29.354  10.805 -35.755  1.00  0.00     0.025 C 
BRANCH   8   9
ATOM      9  C   UNL     1      30.538  10.232 -35.088  1.00  0.00     0.064 C 
ATOM     10  O   UNL     1      31.212  10.950 -34.306  1.00  0.00    -0.545 OA
ATOM     11  O   UNL     1      30.886   8.895 -35.248  1.00  0.00    -0.545 OA
ENDBRANCH   8   9
ENDBRANCH   1   7
BRANCH   4  12
ATOM     12  O   UNL     1      26.796   7.506 -32.065  1.00  0.00    -0.504 OA
ATOM     13  H   UNL     1      26.710   7.127 -31.130  1.00  0.00     0.293 HD
ENDBRANCH   4  12
BRANCH   6  14
ATOM     14  O   UNL     1      26.854   9.337 -29.913  1.00  0.00    -0.504 OA
ATOM     15  H   UNL     1      26.962   9.951 -29.114  1.00  0.00     0.293 HD
ENDBRANCH   6  14
TORSDOF 4
ENDMDL
