MODEL 1
REMARK VINA RESULT:    -3.008      0.000      0.000
REMARK INTER + INTRA:          -7.523
REMARK INTER:                  -5.822
REMARK INTRA:                  -1.701
REMARK UNBOUND:                -1.701
REMARK SMILES CCCCCCCCCCCCCCCCCC(=O)[O-]
REMARK SMILES IDX 10 1 11 2 12 3 13 4 14 5 15 6 16 7 17 8 18 9 19 10 20 11
REMARK SMILES IDX 9 12 8 13 7 14 6 15 5 16 4 17 3 18 2 19 1 20
REMARK H PARENT
REMARK Flexibility Score: inf
ROOT
ATOM      1  C   UNL     1      26.517  19.558  57.907  1.00  0.00     0.000 C 
ENDROOT
BRANCH   1   2
ATOM      2  C   UNL     1      27.152  20.367  59.050  1.00  0.00     0.000 C 
BRANCH   2   3
ATOM      3  C   UNL     1      26.582  21.792  59.155  1.00  0.00     0.000 C 
BRANCH   3   4
ATOM      4  C   UNL     1      25.685  22.006  60.395  1.00  0.00     0.000 C 
BRANCH   4   5
ATOM      5  C   UNL     1      24.199  21.705  60.127  1.00  0.00     0.000 C 
BRANCH   5   6
ATOM      6  C   UNL     1      23.443  21.337  61.417  1.00  0.00     0.000 C 
BRANCH   6   7
ATOM      7  C   UNL     1      24.039  22.010  62.664  1.00  0.00     0.006 C 
BRANCH   7   8
ATOM      8  C   UNL     1      24.489  20.996  63.724  1.00  0.00     0.053 C 
BRANCH   8   9
ATOM      9  C   UNL     1      25.923  20.626  63.517  1.00  0.00     0.041 C 
ATOM     10  O   UNL     1      26.226  19.490  63.065  1.00  0.00    -0.550 OA
ATOM     11  O   UNL     1      26.929  21.518  63.866  1.00  0.00    -0.550 OA
ENDBRANCH   8   9
ENDBRANCH   7   8
ENDBRANCH   6   7
ENDBRANCH   5   6
ENDBRANCH   4   5
ENDBRANCH   3   4
ENDBRANCH   2   3
ENDBRANCH   1   2
BRANCH   1  12
ATOM     12  C   UNL     1      25.952  20.460  56.787  1.00  0.00     0.000 C 
BRANCH  12  13
ATOM     13  C   UNL     1      26.957  20.744  55.656  1.00  0.00    -0.000 C 
BRANCH  13  14
ATOM     14  C   UNL     1      26.433  21.669  54.542  1.00  0.00    -0.000 C 
BRANCH  14  15
ATOM     15  C   UNL     1      24.969  22.125  54.712  1.00  0.00    -0.000 C 
BRANCH  15  16
ATOM     16  C   UNL     1      24.028  21.761  53.545  1.00  0.00    -0.000 C 
BRANCH  16  17
ATOM     17  C   UNL     1      22.916  20.755  53.890  1.00  0.00    -0.000 C 
BRANCH  17  18
ATOM     18  C   UNL     1      23.432  19.310  54.001  1.00  0.00    -0.000 C 
BRANCH  18  19
ATOM     19  C   UNL     1      23.070  18.659  55.345  1.00  0.00    -0.003 C 
ATOM     20  C   UNL     1      24.052  17.563  55.758  1.00  0.00     0.004 C 
ENDBRANCH  18  19
ENDBRANCH  17  18
ENDBRANCH  16  17
ENDBRANCH  15  16
ENDBRANCH  14  15
ENDBRANCH  13  14
ENDBRANCH  12  13
ENDBRANCH   1  12
TORSDOF 16
ENDMDL
MODEL 2
REMARK VINA RESULT:    -2.507      0.998      2.561
REMARK INTER + INTRA:          -6.553
REMARK INTER:                  -4.980
REMARK INTRA:                  -1.573
REMARK UNBOUND:                -1.701
REMARK SMILES CCCCCCCCCCCCCCCCCC(=O)[O-]
REMARK SMILES IDX 10 1 11 2 12 3 13 4 14 5 15 6 16 7 17 8 18 9 19 10 20 11
REMARK SMILES IDX 9 12 8 13 7 14 6 15 5 16 4 17 3 18 2 19 1 20
REMARK H PARENT
REMARK Flexibility Score: inf
ROOT
ATOM      1  C   UNL     1      26.307  19.472  57.673  1.00  0.00     0.000 C 
ENDROOT
BRANCH   1   2
ATOM      2  C   UNL     1      25.334  20.524  58.233  1.00  0.00     0.000 C 
BRANCH   2   3
ATOM      3  C   UNL     1      26.058  21.757  58.800  1.00  0.00     0.000 C 
BRANCH   3   4
ATOM      4  C   UNL     1      25.626  22.115  60.240  1.00  0.00     0.000 C 
BRANCH   4   5
ATOM      5  C   UNL     1      24.370  21.355  60.703  1.00  0.00     0.000 C 
BRANCH   5   6
ATOM      6  C   UNL     1      23.669  22.058  61.879  1.00  0.00     0.000 C 
BRANCH   6   7
ATOM      7  C   UNL     1      24.018  21.428  63.237  1.00  0.00     0.006 C 
BRANCH   7   8
ATOM      8  C   UNL     1      25.529  21.393  63.501  1.00  0.00     0.053 C 
BRANCH   8   9
ATOM      9  C   UNL     1      26.043  19.992  63.406  1.00  0.00     0.041 C 
ATOM     10  O   UNL     1      26.854  19.675  62.496  1.00  0.00    -0.550 OA
ATOM     11  O   UNL     1      25.593  19.024  64.294  1.00  0.00    -0.550 OA
ENDBRANCH   8   9
ENDBRANCH   7   8
ENDBRANCH   6   7
ENDBRANCH   5   6
ENDBRANCH   4   5
ENDBRANCH   3   4
ENDBRANCH   2   3
ENDBRANCH   1   2
BRANCH   1  12
ATOM     12  C   UNL     1      25.625  18.509  56.676  1.00  0.00     0.000 C 
BRANCH  12  13
ATOM     13  C   UNL     1      24.090  18.614  56.665  1.00  0.00    -0.000 C 
BRANCH  13  14
ATOM     14  C   UNL     1      23.399  17.878  55.501  1.00  0.00    -0.000 C 
BRANCH  14  15
ATOM     15  C   UNL     1      23.155  18.738  54.244  1.00  0.00    -0.000 C 
BRANCH  15  16
ATOM     16  C   UNL     1      23.184  20.262  54.474  1.00  0.00    -0.000 C 
BRANCH  16  17
ATOM     17  C   UNL     1      23.558  21.104  53.240  1.00  0.00    -0.000 C 
BRANCH  17  18
ATOM     18  C   UNL     1      24.688  22.109  53.523  1.00  0.00    -0.000 C 
BRANCH  18  19
ATOM     19  C   UNL     1      25.290  21.935  54.926  1.00  0.00    -0.003 C 
ATOM     20  C   UNL     1      26.816  21.836  54.910  1.00  0.00     0.004 C 
ENDBRANCH  18  19
ENDBRANCH  17  18
ENDBRANCH  16  17
ENDBRANCH  15  16
ENDBRANCH  14  15
ENDBRANCH  13  14
ENDBRANCH  12  13
ENDBRANCH   1  12
TORSDOF 16
ENDMDL
MODEL 3
REMARK VINA RESULT:    -2.430      2.874      7.169
REMARK INTER + INTRA:          -6.404
REMARK INTER:                  -4.597
REMARK INTRA:                  -1.808
REMARK UNBOUND:                -1.701
REMARK SMILES CCCCCCCCCCCCCCCCCC(=O)[O-]
REMARK SMILES IDX 10 1 11 2 12 3 13 4 14 5 15 6 16 7 17 8 18 9 19 10 20 11
REMARK SMILES IDX 9 12 8 13 7 14 6 15 5 16 4 17 3 18 2 19 1 20
REMARK H PARENT
REMARK Flexibility Score: inf
ROOT
ATOM      1  C   UNL     1      24.475  18.601  57.117  1.00  0.00     0.000 C 
ENDROOT
BRANCH   1   2
ATOM      2  C   UNL     1      23.014  18.442  56.667  1.00  0.00     0.000 C 
BRANCH   2   3
ATOM      3  C   UNL     1      22.877  18.272  55.145  1.00  0.00     0.000 C 
BRANCH   3   4
ATOM      4  C   UNL     1      24.134  18.717  54.362  1.00  0.00     0.000 C 
BRANCH   4   5
ATOM      5  C   UNL     1      23.954  20.067  53.644  1.00  0.00     0.000 C 
BRANCH   5   6
ATOM      6  C   UNL     1      23.854  21.240  54.635  1.00  0.00     0.000 C 
BRANCH   6   7
ATOM      7  C   UNL     1      25.112  22.123  54.634  1.00  0.00     0.006 C 
BRANCH   7   8
ATOM      8  C   UNL     1      25.974  21.927  55.889  1.00  0.00     0.053 C 
BRANCH   8   9
ATOM      9  C   UNL     1      27.289  21.313  55.529  1.00  0.00     0.041 C 
ATOM     10  O   UNL     1      28.331  22.019  55.503  1.00  0.00    -0.550 OA
ATOM     11  O   UNL     1      27.357  19.972  55.177  1.00  0.00    -0.550 OA
ENDBRANCH   8   9
ENDBRANCH   7   8
ENDBRANCH   6   7
ENDBRANCH   5   6
ENDBRANCH   4   5
ENDBRANCH   3   4
ENDBRANCH   2   3
ENDBRANCH   1   2
BRANCH   1  12
ATOM     12  C   UNL     1      24.701  19.880  57.954  1.00  0.00     0.000 C 
BRANCH  12  13
ATOM     13  C   UNL     1      23.402  20.499  58.501  1.00  0.00    -0.000 C 
BRANCH  13  14
ATOM     14  C   UNL     1      23.589  21.819  59.271  1.00  0.00    -0.000 C 
BRANCH  14  15
ATOM     15  C   UNL     1      25.039  22.121  59.700  1.00  0.00    -0.000 C 
BRANCH  15  16
ATOM     16  C   UNL     1      25.302  22.054  61.218  1.00  0.00    -0.000 C 
BRANCH  16  17
ATOM     17  C   UNL     1      24.109  21.586  62.070  1.00  0.00    -0.000 C 
BRANCH  17  18
ATOM     18  C   UNL     1      24.541  20.880  63.367  1.00  0.00    -0.000 C 
BRANCH  18  19
ATOM     19  C   UNL     1      25.995  21.195  63.750  1.00  0.00    -0.003 C 
ATOM     20  C   UNL     1      26.769  19.959  64.209  1.00  0.00     0.004 C 
ENDBRANCH  18  19
ENDBRANCH  17  18
ENDBRANCH  16  17
ENDBRANCH  15  16
ENDBRANCH  14  15
ENDBRANCH  13  14
ENDBRANCH  12  13
ENDBRANCH   1  12
TORSDOF 16
ENDMDL
MODEL 4
REMARK VINA RESULT:    -2.389      1.167      1.848
REMARK INTER + INTRA:          -6.325
REMARK INTER:                  -5.075
REMARK INTRA:                  -1.250
REMARK UNBOUND:                -1.701
REMARK SMILES CCCCCCCCCCCCCCCCCC(=O)[O-]
REMARK SMILES IDX 10 1 11 2 12 3 13 4 14 5 15 6 16 7 17 8 18 9 19 10 20 11
REMARK SMILES IDX 9 12 8 13 7 14 6 15 5 16 4 17 3 18 2 19 1 20
REMARK H PARENT
REMARK Flexibility Score: inf
ROOT
ATOM      1  C   UNL     1      26.606  19.882  58.223  1.00  0.00     0.000 C 
ENDROOT
BRANCH   1   2
ATOM      2  C   UNL     1      26.862  20.643  59.534  1.00  0.00     0.000 C 
BRANCH   2   3
ATOM      3  C   UNL     1      26.292  22.072  59.511  1.00  0.00     0.000 C 
BRANCH   3   4
ATOM      4  C   UNL     1      24.758  22.125  59.696  1.00  0.00     0.000 C 
BRANCH   4   5
ATOM      5  C   UNL     1      24.253  21.213  60.828  1.00  0.00     0.000 C 
BRANCH   5   6
ATOM      6  C   UNL     1      23.537  22.008  61.935  1.00  0.00     0.000 C 
BRANCH   6   7
ATOM      7  C   UNL     1      24.338  22.048  63.246  1.00  0.00     0.006 C 
BRANCH   7   8
ATOM      8  C   UNL     1      24.682  20.648  63.772  1.00  0.00     0.053 C 
BRANCH   8   9
ATOM      9  C   UNL     1      26.152  20.394  63.659  1.00  0.00     0.041 C 
ATOM     10  O   UNL     1      26.654  19.352  64.155  1.00  0.00    -0.550 OA
ATOM     11  O   UNL     1      26.974  21.330  63.045  1.00  0.00    -0.550 OA
ENDBRANCH   8   9
ENDBRANCH   7   8
ENDBRANCH   6   7
ENDBRANCH   5   6
ENDBRANCH   4   5
ENDBRANCH   3   4
ENDBRANCH   2   3
ENDBRANCH   1   2
BRANCH   1  12
ATOM     12  C   UNL     1      27.141  20.637  56.986  1.00  0.00     0.000 C 
BRANCH  12  13
ATOM     13  C   UNL     1      26.076  20.883  55.902  1.00  0.00    -0.000 C 
BRANCH  13  14
ATOM     14  C   UNL     1      24.800  21.589  56.395  1.00  0.00    -0.000 C 
BRANCH  14  15
ATOM     15  C   UNL     1      23.490  20.812  56.147  1.00  0.00    -0.000 C 
BRANCH  15  16
ATOM     16  C   UNL     1      23.076  19.845  57.274  1.00  0.00    -0.000 C 
BRANCH  16  17
ATOM     17  C   UNL     1      23.092  18.353  56.895  1.00  0.00    -0.000 C 
BRANCH  17  18
ATOM     18  C   UNL     1      23.708  18.095  55.509  1.00  0.00    -0.000 C 
BRANCH  18  19
ATOM     19  C   UNL     1      22.880  18.716  54.374  1.00  0.00    -0.003 C 
ATOM     20  C   UNL     1      23.725  19.087  53.156  1.00  0.00     0.004 C 
ENDBRANCH  18  19
ENDBRANCH  17  18
ENDBRANCH  16  17
ENDBRANCH  15  16
ENDBRANCH  14  15
ENDBRANCH  13  14
ENDBRANCH  12  13
ENDBRANCH   1  12
TORSDOF 16
ENDMDL
MODEL 5
REMARK VINA RESULT:    -2.262      3.427      7.532
REMARK INTER + INTRA:          -6.079
REMARK INTER:                  -5.037
REMARK INTRA:                  -1.043
REMARK UNBOUND:                -1.701
REMARK SMILES CCCCCCCCCCCCCCCCCC(=O)[O-]
REMARK SMILES IDX 10 1 11 2 12 3 13 4 14 5 15 6 16 7 17 8 18 9 19 10 20 11
REMARK SMILES IDX 9 12 8 13 7 14 6 15 5 16 4 17 3 18 2 19 1 20
REMARK H PARENT
REMARK Flexibility Score: inf
ROOT
ATOM      1  C   UNL     1      26.973  20.633  59.081  1.00  0.00     0.000 C 
ENDROOT
BRANCH   1   2
ATOM      2  C   UNL     1      26.831  21.102  57.623  1.00  0.00     0.000 C 
BRANCH   2   3
ATOM      3  C   UNL     1      25.386  21.482  57.260  1.00  0.00     0.000 C 
BRANCH   3   4
ATOM      4  C   UNL     1      24.466  20.259  57.041  1.00  0.00     0.000 C 
BRANCH   4   5
ATOM      5  C   UNL     1      25.136  19.133  56.233  1.00  0.00     0.000 C 
BRANCH   5   6
ATOM      6  C   UNL     1      24.111  18.304  55.438  1.00  0.00     0.000 C 
BRANCH   6   7
ATOM      7  C   UNL     1      23.609  19.033  54.181  1.00  0.00     0.006 C 
BRANCH   7   8
ATOM      8  C   UNL     1      22.939  20.375  54.504  1.00  0.00     0.053 C 
BRANCH   8   9
ATOM      9  C   UNL     1      23.583  21.480  53.728  1.00  0.00     0.041 C 
ATOM     10  O   UNL     1      22.918  22.125  52.875  1.00  0.00    -0.550 OA
ATOM     11  O   UNL     1      24.929  21.767  53.912  1.00  0.00    -0.550 OA
ENDBRANCH   8   9
ENDBRANCH   7   8
ENDBRANCH   6   7
ENDBRANCH   5   6
ENDBRANCH   4   5
ENDBRANCH   3   4
ENDBRANCH   2   3
ENDBRANCH   1   2
BRANCH   1  12
ATOM     12  C   UNL     1      27.536  21.736  60.005  1.00  0.00     0.000 C 
BRANCH  12  13
ATOM     13  C   UNL     1      26.594  22.114  61.163  1.00  0.00    -0.000 C 
BRANCH  13  14
ATOM     14  C   UNL     1      27.248  22.110  62.556  1.00  0.00    -0.000 C 
BRANCH  14  15
ATOM     15  C   UNL     1      26.565  21.192  63.591  1.00  0.00    -0.000 C 
BRANCH  15  16
ATOM     16  C   UNL     1      25.183  20.648  63.176  1.00  0.00    -0.000 C 
BRANCH  16  17
ATOM     17  C   UNL     1      23.981  21.490  63.640  1.00  0.00    -0.000 C 
BRANCH  17  18
ATOM     18  C   UNL     1      22.967  21.753  62.514  1.00  0.00    -0.000 C 
BRANCH  18  19
ATOM     19  C   UNL     1      23.409  21.148  61.173  1.00  0.00    -0.003 C 
ATOM     20  C   UNL     1      23.257  22.121  60.004  1.00  0.00     0.004 C 
ENDBRANCH  18  19
ENDBRANCH  17  18
ENDBRANCH  16  17
ENDBRANCH  15  16
ENDBRANCH  14  15
ENDBRANCH  13  14
ENDBRANCH  12  13
ENDBRANCH   1  12
TORSDOF 16
ENDMDL
MODEL 6
REMARK VINA RESULT:    -2.203      3.219      7.306
REMARK INTER + INTRA:          -5.964
REMARK INTER:                  -5.001
REMARK INTRA:                  -0.963
REMARK UNBOUND:                -1.701
REMARK SMILES CCCCCCCCCCCCCCCCCC(=O)[O-]
REMARK SMILES IDX 10 1 11 2 12 3 13 4 14 5 15 6 16 7 17 8 18 9 19 10 20 11
REMARK SMILES IDX 9 12 8 13 7 14 6 15 5 16 4 17 3 18 2 19 1 20
REMARK H PARENT
REMARK Flexibility Score: inf
ROOT
ATOM      1  C   UNL     1      26.745  20.010  59.158  1.00  0.00     0.000 C 
ENDROOT
BRANCH   1   2
ATOM      2  C   UNL     1      26.633  20.219  57.639  1.00  0.00     0.000 C 
BRANCH   2   3
ATOM      3  C   UNL     1      25.904  19.063  56.934  1.00  0.00     0.000 C 
BRANCH   3   4
ATOM      4  C   UNL     1      24.372  19.088  57.135  1.00  0.00     0.000 C 
BRANCH   4   5
ATOM      5  C   UNL     1      23.601  18.377  56.009  1.00  0.00     0.000 C 
BRANCH   5   6
ATOM      6  C   UNL     1      23.413  19.281  54.776  1.00  0.00     0.000 C 
BRANCH   6   7
ATOM      7  C   UNL     1      22.875  20.673  55.141  1.00  0.00     0.006 C 
BRANCH   7   8
ATOM      8  C   UNL     1      23.994  21.677  55.450  1.00  0.00     0.053 C 
BRANCH   8   9
ATOM      9  C   UNL     1      24.865  21.874  54.251  1.00  0.00     0.041 C 
ATOM     10  O   UNL     1      24.366  21.849  53.095  1.00  0.00    -0.550 OA
ATOM     11  O   UNL     1      26.235  22.039  54.406  1.00  0.00    -0.550 OA
ENDBRANCH   8   9
ENDBRANCH   7   8
ENDBRANCH   6   7
ENDBRANCH   5   6
ENDBRANCH   4   5
ENDBRANCH   3   4
ENDBRANCH   2   3
ENDBRANCH   1   2
BRANCH   1  12
ATOM     12  C   UNL     1      26.899  21.340  59.928  1.00  0.00     0.000 C 
BRANCH  12  13
ATOM     13  C   UNL     1      25.562  22.048  60.215  1.00  0.00    -0.000 C 
BRANCH  13  14
ATOM     14  C   UNL     1      24.339  21.116  60.288  1.00  0.00    -0.000 C 
BRANCH  14  15
ATOM     15  C   UNL     1      23.034  21.793  60.755  1.00  0.00    -0.000 C 
BRANCH  15  16
ATOM     16  C   UNL     1      22.967  22.125  62.259  1.00  0.00    -0.000 C 
BRANCH  16  17
ATOM     17  C   UNL     1      24.321  22.125  62.991  1.00  0.00    -0.000 C 
BRANCH  17  18
ATOM     18  C   UNL     1      24.392  21.080  64.117  1.00  0.00    -0.000 C 
BRANCH  18  19
ATOM     19  C   UNL     1      25.297  19.891  63.759  1.00  0.00    -0.003 C 
ATOM     20  C   UNL     1      26.755  20.296  63.548  1.00  0.00     0.004 C 
ENDBRANCH  18  19
ENDBRANCH  17  18
ENDBRANCH  16  17
ENDBRANCH  15  16
ENDBRANCH  14  15
ENDBRANCH  13  14
ENDBRANCH  12  13
ENDBRANCH   1  12
TORSDOF 16
ENDMDL
MODEL 7
REMARK VINA RESULT:    -1.949      1.337      2.613
REMARK INTER + INTRA:          -5.473
REMARK INTER:                  -4.042
REMARK INTRA:                  -1.432
REMARK UNBOUND:                -1.701
REMARK SMILES CCCCCCCCCCCCCCCCCC(=O)[O-]
REMARK SMILES IDX 10 1 11 2 12 3 13 4 14 5 15 6 16 7 17 8 18 9 19 10 20 11
REMARK SMILES IDX 9 12 8 13 7 14 6 15 5 16 4 17 3 18 2 19 1 20
REMARK H PARENT
REMARK Flexibility Score: inf
ROOT
ATOM      1  C   UNL     1      26.741  20.546  58.295  1.00  0.00     0.000 C 
ENDROOT
BRANCH   1   2
ATOM      2  C   UNL     1      27.853  20.911  59.292  1.00  0.00     0.000 C 
BRANCH   2   3
ATOM      3  C   UNL     1      27.488  22.120  60.169  1.00  0.00     0.000 C 
BRANCH   3   4
ATOM      4  C   UNL     1      26.527  21.770  61.329  1.00  0.00     0.000 C 
BRANCH   4   5
ATOM      5  C   UNL     1      25.048  22.027  60.989  1.00  0.00     0.000 C 
BRANCH   5   6
ATOM      6  C   UNL     1      24.149  21.971  62.238  1.00  0.00     0.000 C 
BRANCH   6   7
ATOM      7  C   UNL     1      24.954  21.824  63.538  1.00  0.00     0.006 C 
BRANCH   7   8
ATOM      8  C   UNL     1      24.604  20.545  64.309  1.00  0.00     0.053 C 
BRANCH   8   9
ATOM      9  C   UNL     1      25.677  19.518  64.133  1.00  0.00     0.041 C 
ATOM     10  O   UNL     1      26.869  19.875  63.941  1.00  0.00    -0.550 OA
ATOM     11  O   UNL     1      25.354  18.168  64.134  1.00  0.00    -0.550 OA
ENDBRANCH   8   9
ENDBRANCH   7   8
ENDBRANCH   6   7
ENDBRANCH   5   6
ENDBRANCH   4   5
ENDBRANCH   3   4
ENDBRANCH   2   3
ENDBRANCH   1   2
BRANCH   1  12
ATOM     12  C   UNL     1      26.157  21.785  57.580  1.00  0.00     0.000 C 
BRANCH  12  13
ATOM     13  C   UNL     1      24.618  21.834  57.583  1.00  0.00    -0.000 C 
BRANCH  13  14
ATOM     14  C   UNL     1      23.932  20.586  58.169  1.00  0.00    -0.000 C 
BRANCH  14  15
ATOM     15  C   UNL     1      23.270  19.660  57.129  1.00  0.00    -0.000 C 
BRANCH  15  16
ATOM     16  C   UNL     1      24.204  19.156  56.010  1.00  0.00    -0.000 C 
BRANCH  16  17
ATOM     17  C   UNL     1      23.957  19.774  54.622  1.00  0.00    -0.000 C 
BRANCH  17  18
ATOM     18  C   UNL     1      22.965  20.949  54.660  1.00  0.00    -0.000 C 
BRANCH  18  19
ATOM     19  C   UNL     1      23.261  22.002  53.580  1.00  0.00    -0.003 C 
ATOM     20  C   UNL     1      24.749  22.110  53.248  1.00  0.00     0.004 C 
ENDBRANCH  18  19
ENDBRANCH  17  18
ENDBRANCH  16  17
ENDBRANCH  15  16
ENDBRANCH  14  15
ENDBRANCH  13  14
ENDBRANCH  12  13
ENDBRANCH   1  12
TORSDOF 16
ENDMDL
