MODEL 1
REMARK VINA RESULT:    29.740      0.000      0.000
REMARK INTER + INTRA:          36.308
REMARK INTER:                  35.825
REMARK INTRA:                   0.483
REMARK UNBOUND:                 0.483
REMARK SMILES O=c1c(O)c(-c2ccc(O)c(O)c2)oc2cc(O)cc(O)c12
REMARK SMILES IDX 5 1 3 2 2 3 1 4 22 5 20 6 19 7 17 8 16 9 15 10 14 11 6 12
REMARK SMILES IDX 7 13 8 14 9 15 13 16 11 17 10 18 12 20 4 22 21 24 18 26
REMARK H PARENT 10 19 12 21 4 23 21 25 18 27
REMARK Flexibility Score: inf
ROOT
ATOM      1  C   UNL     1      15.169   7.837  16.219  1.00  0.00     0.180 A 
ATOM      2  C   UNL     1      14.193   7.864  15.208  1.00  0.00     0.208 A 
ATOM      3  C   UNL     1      13.642   6.653  14.761  1.00  0.00     0.238 A 
ATOM      4  O   UNL     1      12.716   6.690  13.910  1.00  0.00    -0.285 OA
ATOM      5  C   UNL     1      14.113   5.426  15.289  1.00  0.00     0.111 A 
ATOM      6  C   UNL     1      13.658   4.137  14.877  1.00  0.00     0.134 A 
ATOM      7  C   UNL     1      14.119   2.996  15.545  1.00  0.00     0.093 A 
ATOM      8  C   UNL     1      15.067   3.093  16.567  1.00  0.00     0.123 A 
ATOM      9  C   UNL     1      15.558   4.343  16.939  1.00  0.00     0.094 A 
ATOM     10  C   UNL     1      15.088   5.502  16.318  1.00  0.00     0.146 A 
ATOM     11  O   UNL     1      15.568   6.673  16.718  1.00  0.00    -0.452 OA
ENDROOT
BRANCH   1  12
ATOM     12  C   UNL     1      15.787   9.073  16.753  1.00  0.00     0.025 A 
ATOM     13  C   UNL     1      15.191  10.315  16.483  1.00  0.00     0.016 A 
ATOM     14  C   UNL     1      15.769  11.495  16.958  1.00  0.00     0.051 A 
ATOM     15  C   UNL     1      16.959  11.451  17.696  1.00  0.00     0.157 A 
ATOM     16  C   UNL     1      16.994   9.035  17.475  1.00  0.00     0.062 A 
ATOM     17  C   UNL     1      17.575  10.220  17.951  1.00  0.00     0.158 A 
BRANCH  15  18
ATOM     18  O   UNL     1      17.537  12.626  18.173  1.00  0.00    -0.504 OA
ATOM     19  H   UNL     1      18.534  12.793  18.103  1.00  0.00     0.293 HD
ENDBRANCH  15  18
BRANCH  17  20
ATOM     20  O   UNL     1      18.767  10.180  18.671  1.00  0.00    -0.504 OA
ATOM     21  H   UNL     1      19.201   9.302  18.932  1.00  0.00     0.293 HD
ENDBRANCH  17  20
ENDBRANCH   1  12
BRANCH   2  22
ATOM     22  O   UNL     1      13.797   9.082  14.646  1.00  0.00    -0.502 OA
ATOM     23  H   UNL     1      14.097   9.975  15.018  1.00  0.00     0.293 HD
ENDBRANCH   2  22
BRANCH   6  24
ATOM     24  O   UNL     1      12.781   3.920  13.810  1.00  0.00    -0.507 OA
ATOM     25  H   UNL     1      13.034   3.497  12.930  1.00  0.00     0.293 HD
ENDBRANCH   6  24
BRANCH   8  26
ATOM     26  O   UNL     1      15.533   1.952  17.214  1.00  0.00    -0.508 OA
ATOM     27  H   UNL     1      16.430   1.938  17.687  1.00  0.00     0.293 HD
ENDBRANCH   8  26
TORSDOF 6
ENDMDL
MODEL 2
REMARK VINA RESULT:    29.849      4.665      7.496
REMARK INTER + INTRA:          36.440
REMARK INTER:                  35.928
REMARK INTRA:                   0.511
REMARK UNBOUND:                 0.483
REMARK SMILES O=c1c(O)c(-c2ccc(O)c(O)c2)oc2cc(O)cc(O)c12
REMARK SMILES IDX 5 1 3 2 2 3 1 4 22 5 20 6 19 7 17 8 16 9 15 10 14 11 6 12
REMARK SMILES IDX 7 13 8 14 9 15 13 16 11 17 10 18 12 20 4 22 21 24 18 26
REMARK H PARENT 10 19 12 21 4 23 21 25 18 27
REMARK Flexibility Score: inf
ROOT
ATOM      1  C   UNL     1      17.129   3.350  13.493  1.00  0.00     0.180 A 
ATOM      2  C   UNL     1      17.345   2.822  14.778  1.00  0.00     0.208 A 
ATOM      3  C   UNL     1      16.376   3.029  15.771  1.00  0.00     0.238 A 
ATOM      4  O   UNL     1      16.541   2.490  16.896  1.00  0.00    -0.285 OA
ATOM      5  C   UNL     1      15.228   3.808  15.486  1.00  0.00     0.111 A 
ATOM      6  C   UNL     1      14.203   4.119  16.430  1.00  0.00     0.134 A 
ATOM      7  C   UNL     1      13.061   4.810  16.005  1.00  0.00     0.093 A 
ATOM      8  C   UNL     1      12.936   5.256  14.688  1.00  0.00     0.123 A 
ATOM      9  C   UNL     1      13.956   5.005  13.773  1.00  0.00     0.094 A 
ATOM     10  C   UNL     1      15.090   4.284  14.156  1.00  0.00     0.146 A 
ATOM     11  O   UNL     1      16.027   4.049  13.246  1.00  0.00    -0.452 OA
ENDROOT
BRANCH   1  12
ATOM     12  C   UNL     1      18.098   3.163  12.389  1.00  0.00     0.025 A 
ATOM     13  C   UNL     1      19.161   2.260  12.550  1.00  0.00     0.016 A 
ATOM     14  C   UNL     1      20.099   2.084  11.530  1.00  0.00     0.051 A 
ATOM     15  C   UNL     1      19.998   2.818  10.341  1.00  0.00     0.157 A 
ATOM     16  C   UNL     1      18.012   3.914  11.203  1.00  0.00     0.062 A 
ATOM     17  C   UNL     1      18.954   3.739  10.179  1.00  0.00     0.158 A 
BRANCH  15  18
ATOM     18  O   UNL     1      20.930   2.643   9.321  1.00  0.00    -0.504 OA
ATOM     19  H   UNL     1      21.888   2.959   9.418  1.00  0.00     0.293 HD
ENDBRANCH  15  18
BRANCH  17  20
ATOM     20  O   UNL     1      18.864   4.480   9.003  1.00  0.00    -0.504 OA
ATOM     21  H   UNL     1      17.974   4.822   8.659  1.00  0.00     0.293 HD
ENDBRANCH  17  20
ENDBRANCH   1  12
BRANCH   2  22
ATOM     22  O   UNL     1      18.521   2.121  15.060  1.00  0.00    -0.502 OA
ATOM     23  H   UNL     1      19.417   2.379  14.663  1.00  0.00     0.293 HD
ENDBRANCH   2  22
BRANCH   6  24
ATOM     24  O   UNL     1      14.266   3.800  17.789  1.00  0.00    -0.507 OA
ATOM     25  H   UNL     1      14.489   2.889  18.159  1.00  0.00     0.293 HD
ENDBRANCH   6  24
BRANCH   8  26
ATOM     26  O   UNL     1      11.804   5.957  14.279  1.00  0.00    -0.508 OA
ATOM     27  H   UNL     1      10.889   5.521  14.257  1.00  0.00     0.293 HD
ENDBRANCH   8  26
TORSDOF 6
ENDMDL
MODEL 3
REMARK VINA RESULT:    30.633      2.447      6.654
REMARK INTER + INTRA:          37.384
REMARK INTER:                  37.642
REMARK INTRA:                  -0.258
REMARK UNBOUND:                 0.483
REMARK SMILES O=c1c(O)c(-c2ccc(O)c(O)c2)oc2cc(O)cc(O)c12
REMARK SMILES IDX 5 1 3 2 2 3 1 4 22 5 20 6 19 7 17 8 16 9 15 10 14 11 6 12
REMARK SMILES IDX 7 13 8 14 9 15 13 16 11 17 10 18 12 20 4 22 21 24 18 26
REMARK H PARENT 10 19 12 21 4 23 21 25 18 27
REMARK Flexibility Score: inf
ROOT
ATOM      1  C   UNL     1      15.604   4.079  14.975  1.00  0.00     0.180 A 
ATOM      2  C   UNL     1      14.452   3.844  14.203  1.00  0.00     0.208 A 
ATOM      3  C   UNL     1      13.544   4.895  13.999  1.00  0.00     0.238 A 
ATOM      4  O   UNL     1      12.555   4.699  13.246  1.00  0.00    -0.285 OA
ATOM      5  C   UNL     1      13.767   6.150  14.615  1.00  0.00     0.111 A 
ATOM      6  C   UNL     1      12.889   7.272  14.514  1.00  0.00     0.134 A 
ATOM      7  C   UNL     1      13.266   8.496  15.079  1.00  0.00     0.093 A 
ATOM      8  C   UNL     1      14.458   8.623  15.797  1.00  0.00     0.123 A 
ATOM      9  C   UNL     1      15.295   7.520  15.947  1.00  0.00     0.094 A 
ATOM     10  C   UNL     1      14.965   6.295  15.362  1.00  0.00     0.146 A 
ATOM     11  O   UNL     1      15.802   5.276  15.514  1.00  0.00    -0.452 OA
ENDROOT
BRANCH   1  12
ATOM     12  C   UNL     1      16.615   3.026  15.223  1.00  0.00     0.025 A 
ATOM     13  C   UNL     1      17.487   2.649  14.190  1.00  0.00     0.016 A 
ATOM     14  C   UNL     1      18.434   1.642  14.396  1.00  0.00     0.051 A 
ATOM     15  C   UNL     1      18.513   0.989  15.632  1.00  0.00     0.157 A 
ATOM     16  C   UNL     1      16.683   2.352  16.456  1.00  0.00     0.062 A 
ATOM     17  C   UNL     1      17.633   1.341  16.663  1.00  0.00     0.158 A 
BRANCH  15  18
ATOM     18  O   UNL     1      19.458  -0.013  15.842  1.00  0.00    -0.504 OA
ATOM     19  H   UNL     1      20.112  -0.285  15.117  1.00  0.00     0.293 HD
ENDBRANCH  15  18
BRANCH  17  20
ATOM     20  O   UNL     1      17.703   0.679  17.886  1.00  0.00    -0.504 OA
ATOM     21  H   UNL     1      17.981  -0.294  17.948  1.00  0.00     0.293 HD
ENDBRANCH  17  20
ENDBRANCH   1  12
BRANCH   2  22
ATOM     22  O   UNL     1      14.212   2.576  13.667  1.00  0.00    -0.502 OA
ATOM     23  H   UNL     1      13.549   1.930  14.077  1.00  0.00     0.293 HD
ENDBRANCH   2  22
BRANCH   6  24
ATOM     24  O   UNL     1      11.635   7.232  13.897  1.00  0.00    -0.507 OA
ATOM     25  H   UNL     1      11.171   6.393  13.585  1.00  0.00     0.293 HD
ENDBRANCH   6  24
BRANCH   8  26
ATOM     26  O   UNL     1      14.816   9.841  16.370  1.00  0.00    -0.508 OA
ATOM     27  H   UNL     1      15.576   9.909  17.038  1.00  0.00     0.293 HD
ENDBRANCH   8  26
TORSDOF 6
ENDMDL
MODEL 4
REMARK VINA RESULT:    31.988      2.971      4.760
REMARK INTER + INTRA:          39.016
REMARK INTER:                  39.290
REMARK INTRA:                  -0.274
REMARK UNBOUND:                 0.483
REMARK SMILES O=c1c(O)c(-c2ccc(O)c(O)c2)oc2cc(O)cc(O)c12
REMARK SMILES IDX 5 1 3 2 2 3 1 4 22 5 20 6 19 7 17 8 16 9 15 10 14 11 6 12
REMARK SMILES IDX 7 13 8 14 9 15 13 16 11 17 10 18 12 20 4 22 21 24 18 26
REMARK H PARENT 10 19 12 21 4 23 21 25 18 27
REMARK Flexibility Score: inf
ROOT
ATOM      1  C   UNL     1      14.856   5.680  15.534  1.00  0.00     0.180 A 
ATOM      2  C   UNL     1      14.654   5.057  16.777  1.00  0.00     0.208 A 
ATOM      3  C   UNL     1      15.322   3.853  17.052  1.00  0.00     0.238 A 
ATOM      4  O   UNL     1      15.196   3.341  18.194  1.00  0.00    -0.285 OA
ATOM      5  C   UNL     1      16.141   3.259  16.061  1.00  0.00     0.111 A 
ATOM      6  C   UNL     1      16.830   2.018  16.214  1.00  0.00     0.134 A 
ATOM      7  C   UNL     1      17.696   1.580  15.205  1.00  0.00     0.093 A 
ATOM      8  C   UNL     1      17.848   2.305  14.020  1.00  0.00     0.123 A 
ATOM      9  C   UNL     1      17.137   3.489  13.838  1.00  0.00     0.094 A 
ATOM     10  C   UNL     1      16.296   3.972  14.843  1.00  0.00     0.146 A 
ATOM     11  O   UNL     1      15.654   5.115  14.636  1.00  0.00    -0.452 OA
ENDROOT
BRANCH   1  12
ATOM     12  C   UNL     1      14.197   6.957  15.175  1.00  0.00     0.025 A 
ATOM     13  C   UNL     1      14.681   8.159  15.715  1.00  0.00     0.016 A 
ATOM     14  C   UNL     1      14.062   9.373  15.407  1.00  0.00     0.051 A 
ATOM     15  C   UNL     1      12.940   9.401  14.569  1.00  0.00     0.157 A 
ATOM     16  C   UNL     1      13.057   6.988  14.351  1.00  0.00     0.062 A 
ATOM     17  C   UNL     1      12.434   8.206  14.043  1.00  0.00     0.158 A 
BRANCH  15  18
ATOM     18  O   UNL     1      12.321  10.610  14.258  1.00  0.00    -0.504 OA
ATOM     19  H   UNL     1      12.478  11.444  14.811  1.00  0.00     0.293 HD
ENDBRANCH  15  18
BRANCH  17  20
ATOM     20  O   UNL     1      11.309   8.235  13.222  1.00  0.00    -0.504 OA
ATOM     21  H   UNL     1      10.529   8.854  13.412  1.00  0.00     0.293 HD
ENDBRANCH  17  20
ENDBRANCH   1  12
BRANCH   2  22
ATOM     22  O   UNL     1      13.782   5.621  17.713  1.00  0.00    -0.502 OA
ATOM     23  H   UNL     1      13.882   5.468  18.709  1.00  0.00     0.293 HD
ENDBRANCH   2  22
BRANCH   6  24
ATOM     24  O   UNL     1      16.682   1.171  17.316  1.00  0.00    -0.507 OA
ATOM     25  H   UNL     1      17.421   0.920  17.956  1.00  0.00     0.293 HD
ENDBRANCH   6  24
BRANCH   8  26
ATOM     26  O   UNL     1      18.698   1.853  13.014  1.00  0.00    -0.508 OA
ATOM     27  H   UNL     1      18.700   0.883  12.717  1.00  0.00     0.293 HD
ENDBRANCH   8  26
TORSDOF 6
ENDMDL
