MODEL 1
REMARK VINA RESULT:    -4.056      0.000      0.000
REMARK INTER + INTRA:         -12.243
REMARK INTER:                  -8.798
REMARK INTRA:                  -3.445
REMARK UNBOUND:                -3.445
REMARK SMILES CCCCCCCCCCCCCCCCCCCCCC(=O)[O-]
REMARK SMILES IDX 12 1 11 2 10 3 9 4 8 5 7 6 6 7 5 8 4 9 3 10 2 11 1 12 13 13
REMARK SMILES IDX 14 14 15 15 16 16 17 17 18 18 19 19 20 20 21 21 22 22 23 23
REMARK SMILES IDX 24 24
REMARK H PARENT
REMARK Flexibility Score: inf
ROOT
ATOM      1  C   UNL     1      -7.229  15.184  -2.314  1.00  0.00     0.000 C 
ENDROOT
BRANCH   1   2
ATOM      2  C   UNL     1      -7.573  13.700  -2.117  1.00  0.00     0.000 C 
BRANCH   2   3
ATOM      3  C   UNL     1      -9.017  13.357  -2.527  1.00  0.00     0.000 C 
BRANCH   3   4
ATOM      4  C   UNL     1      -9.196  11.984  -3.202  1.00  0.00    -0.000 C 
BRANCH   4   5
ATOM      5  C   UNL     1      -9.530  12.089  -4.698  1.00  0.00    -0.000 C 
BRANCH   5   6
ATOM      6  C   UNL     1     -10.063  13.485  -5.044  1.00  0.00    -0.000 C 
BRANCH   6   7
ATOM      7  C   UNL     1     -10.367  13.601  -6.546  1.00  0.00    -0.000 C 
BRANCH   7   8
ATOM      8  C   UNL     1      -9.582  14.734  -7.223  1.00  0.00    -0.000 C 
BRANCH   8   9
ATOM      9  C   UNL     1      -8.078  14.428  -7.342  1.00  0.00    -0.000 C 
BRANCH   9  10
ATOM     10  C   UNL     1      -7.231  15.287  -6.378  1.00  0.00    -0.000 C 
BRANCH  10  11
ATOM     11  C   UNL     1      -6.130  14.495  -5.655  1.00  0.00    -0.003 C 
ATOM     12  C   UNL     1      -6.285  12.982  -5.805  1.00  0.00     0.004 C 
ENDBRANCH  10  11
ENDBRANCH   9  10
ENDBRANCH   8   9
ENDBRANCH   7   8
ENDBRANCH   6   7
ENDBRANCH   5   6
ENDBRANCH   4   5
ENDBRANCH   3   4
ENDBRANCH   2   3
ENDBRANCH   1   2
BRANCH   1  13
ATOM     13  C   UNL     1      -8.382  15.931  -2.994  1.00  0.00     0.000 C 
BRANCH  13  14
ATOM     14  C   UNL     1      -8.816  17.145  -2.158  1.00  0.00     0.000 C 
BRANCH  14  15
ATOM     15  C   UNL     1      -9.974  16.826  -1.200  1.00  0.00     0.000 C 
BRANCH  15  16
ATOM     16  C   UNL     1      -9.543  16.849   0.277  1.00  0.00     0.000 C 
BRANCH  16  17
ATOM     17  C   UNL     1      -9.186  15.451   0.809  1.00  0.00     0.000 C 
BRANCH  17  18
ATOM     18  C   UNL     1      -7.826  15.432   1.529  1.00  0.00     0.000 C 
BRANCH  18  19
ATOM     19  C   UNL     1      -6.836  16.471   0.972  1.00  0.00     0.000 C 
BRANCH  19  20
ATOM     20  C   UNL     1      -6.325  17.502   1.996  1.00  0.00     0.006 C 
BRANCH  20  21
ATOM     21  C   UNL     1      -6.987  17.358   3.373  1.00  0.00     0.053 C 
BRANCH  21  22
ATOM     22  C   UNL     1      -6.959  18.660   4.108  1.00  0.00     0.041 C 
ATOM     23  O   UNL     1      -6.038  18.903   4.931  1.00  0.00    -0.550 OA
ATOM     24  O   UNL     1      -7.925  19.626   3.851  1.00  0.00    -0.550 OA
ENDBRANCH  21  22
ENDBRANCH  20  21
ENDBRANCH  19  20
ENDBRANCH  18  19
ENDBRANCH  17  18
ENDBRANCH  16  17
ENDBRANCH  15  16
ENDBRANCH  14  15
ENDBRANCH  13  14
ENDBRANCH   1  13
TORSDOF 20
ENDMDL
MODEL 2
REMARK VINA RESULT:    -4.014      3.799      7.774
REMARK INTER + INTRA:         -12.151
REMARK INTER:                  -8.293
REMARK INTRA:                  -3.858
REMARK UNBOUND:                -3.445
REMARK SMILES CCCCCCCCCCCCCCCCCCCCCC(=O)[O-]
REMARK SMILES IDX 12 1 11 2 10 3 9 4 8 5 7 6 6 7 5 8 4 9 3 10 2 11 1 12 13 13
REMARK SMILES IDX 14 14 15 15 16 16 17 17 18 18 19 19 20 20 21 21 22 22 23 23
REMARK SMILES IDX 24 24
REMARK H PARENT
REMARK Flexibility Score: inf
ROOT
ATOM      1  C   UNL     1      -8.812  17.264  -2.235  1.00  0.00     0.000 C 
ENDROOT
BRANCH   1   2
ATOM      2  C   UNL     1      -8.668  16.068  -3.188  1.00  0.00     0.000 C 
BRANCH   2   3
ATOM      3  C   UNL     1      -7.377  15.263  -2.953  1.00  0.00     0.000 C 
BRANCH   3   4
ATOM      4  C   UNL     1      -7.548  13.989  -2.102  1.00  0.00    -0.000 C 
BRANCH   4   5
ATOM      5  C   UNL     1      -6.464  13.837  -1.025  1.00  0.00    -0.000 C 
BRANCH   5   6
ATOM      6  C   UNL     1      -6.125  15.192  -0.391  1.00  0.00    -0.000 C 
BRANCH   6   7
ATOM      7  C   UNL     1      -7.135  15.552   0.710  1.00  0.00    -0.000 C 
BRANCH   7   8
ATOM      8  C   UNL     1      -6.963  16.990   1.223  1.00  0.00    -0.000 C 
BRANCH   8   9
ATOM      9  C   UNL     1      -7.710  17.243   2.544  1.00  0.00    -0.000 C 
BRANCH   9  10
ATOM     10  C   UNL     1      -8.967  16.358   2.682  1.00  0.00    -0.000 C 
BRANCH  10  11
ATOM     11  C   UNL     1     -10.281  17.111   2.420  1.00  0.00    -0.003 C 
ATOM     12  C   UNL     1     -10.334  18.477   3.103  1.00  0.00     0.004 C 
ENDBRANCH  10  11
ENDBRANCH   9  10
ENDBRANCH   8   9
ENDBRANCH   7   8
ENDBRANCH   6   7
ENDBRANCH   5   6
ENDBRANCH   4   5
ENDBRANCH   3   4
ENDBRANCH   2   3
ENDBRANCH   1   2
BRANCH   1  13
ATOM     13  C   UNL     1      -9.819  16.963  -1.120  1.00  0.00     0.000 C 
BRANCH  13  14
ATOM     14  C   UNL     1     -10.729  15.787  -1.507  1.00  0.00     0.000 C 
BRANCH  14  15
ATOM     15  C   UNL     1     -10.872  14.748  -0.385  1.00  0.00     0.000 C 
BRANCH  15  16
ATOM     16  C   UNL     1     -10.874  13.303  -0.915  1.00  0.00     0.000 C 
BRANCH  16  17
ATOM     17  C   UNL     1     -11.621  13.166  -2.251  1.00  0.00     0.000 C 
BRANCH  17  18
ATOM     18  C   UNL     1     -10.741  12.542  -3.349  1.00  0.00     0.000 C 
BRANCH  18  19
ATOM     19  C   UNL     1     -10.698  13.385  -4.637  1.00  0.00     0.000 C 
BRANCH  19  20
ATOM     20  C   UNL     1      -9.371  13.323  -5.415  1.00  0.00     0.006 C 
BRANCH  20  21
ATOM     21  C   UNL     1      -9.299  14.340  -6.562  1.00  0.00     0.053 C 
BRANCH  21  22
ATOM     22  C   UNL     1      -7.878  14.579  -6.964  1.00  0.00     0.041 C 
ATOM     23  O   UNL     1      -7.273  13.741  -7.682  1.00  0.00    -0.550 OA
ATOM     24  O   UNL     1      -7.235  15.751  -6.583  1.00  0.00    -0.550 OA
ENDBRANCH  21  22
ENDBRANCH  20  21
ENDBRANCH  19  20
ENDBRANCH  18  19
ENDBRANCH  17  18
ENDBRANCH  16  17
ENDBRANCH  15  16
ENDBRANCH  14  15
ENDBRANCH  13  14
ENDBRANCH   1  13
TORSDOF 20
ENDMDL
MODEL 3
REMARK VINA RESULT:    -3.985      3.533      8.299
REMARK INTER + INTRA:         -12.088
REMARK INTER:                  -9.038
REMARK INTRA:                  -3.050
REMARK UNBOUND:                -3.445
REMARK SMILES CCCCCCCCCCCCCCCCCCCCCC(=O)[O-]
REMARK SMILES IDX 12 1 11 2 10 3 9 4 8 5 7 6 6 7 5 8 4 9 3 10 2 11 1 12 13 13
REMARK SMILES IDX 14 14 15 15 16 16 17 17 18 18 19 19 20 20 21 21 22 22 23 23
REMARK SMILES IDX 24 24
REMARK H PARENT
REMARK Flexibility Score: inf
ROOT
ATOM      1  C   UNL     1      -8.756  17.106  -2.486  1.00  0.00     0.000 C 
ENDROOT
BRANCH   1   2
ATOM      2  C   UNL     1      -9.902  17.050  -1.466  1.00  0.00     0.000 C 
BRANCH   2   3
ATOM      3  C   UNL     1     -10.675  15.720  -1.501  1.00  0.00     0.000 C 
BRANCH   3   4
ATOM      4  C   UNL     1     -10.459  14.807  -0.278  1.00  0.00    -0.000 C 
BRANCH   4   5
ATOM      5  C   UNL     1      -9.430  15.367   0.715  1.00  0.00    -0.000 C 
BRANCH   5   6
ATOM      6  C   UNL     1      -8.049  14.742   0.485  1.00  0.00    -0.000 C 
BRANCH   6   7
ATOM      7  C   UNL     1      -6.967  15.827   0.369  1.00  0.00    -0.000 C 
BRANCH   7   8
ATOM      8  C   UNL     1      -5.914  15.734   1.483  1.00  0.00    -0.000 C 
BRANCH   8   9
ATOM      9  C   UNL     1      -6.360  16.427   2.783  1.00  0.00    -0.000 C 
BRANCH   9  10
ATOM     10  C   UNL     1      -6.488  17.956   2.614  1.00  0.00    -0.000 C 
BRANCH  10  11
ATOM     11  C   UNL     1      -7.317  18.630   3.720  1.00  0.00    -0.003 C 
ATOM     12  C   UNL     1      -6.478  19.036   4.932  1.00  0.00     0.004 C 
ENDBRANCH  10  11
ENDBRANCH   9  10
ENDBRANCH   8   9
ENDBRANCH   7   8
ENDBRANCH   6   7
ENDBRANCH   5   6
ENDBRANCH   4   5
ENDBRANCH   3   4
ENDBRANCH   2   3
ENDBRANCH   1   2
BRANCH   1  13
ATOM     13  C   UNL     1      -8.748  15.857  -3.375  1.00  0.00     0.000 C 
BRANCH  13  14
ATOM     14  C   UNL     1      -7.436  15.076  -3.210  1.00  0.00     0.000 C 
BRANCH  14  15
ATOM     15  C   UNL     1      -7.596  13.573  -3.488  1.00  0.00     0.000 C 
BRANCH  15  16
ATOM     16  C   UNL     1      -9.047  13.092  -3.314  1.00  0.00     0.000 C 
BRANCH  16  17
ATOM     17  C   UNL     1      -9.629  12.492  -4.605  1.00  0.00     0.000 C 
BRANCH  17  18
ATOM     18  C   UNL     1     -10.846  13.283  -5.118  1.00  0.00     0.000 C 
BRANCH  18  19
ATOM     19  C   UNL     1     -10.776  13.583  -6.627  1.00  0.00     0.000 C 
BRANCH  19  20
ATOM     20  C   UNL     1      -9.791  14.697  -7.027  1.00  0.00     0.006 C 
BRANCH  20  21
ATOM     21  C   UNL     1      -8.577  14.174  -7.805  1.00  0.00     0.053 C 
BRANCH  21  22
ATOM     22  C   UNL     1      -7.310  14.480  -7.070  1.00  0.00     0.041 C 
ATOM     23  O   UNL     1      -7.081  15.650  -6.664  1.00  0.00    -0.550 OA
ATOM     24  O   UNL     1      -6.403  13.465  -6.792  1.00  0.00    -0.550 OA
ENDBRANCH  21  22
ENDBRANCH  20  21
ENDBRANCH  19  20
ENDBRANCH  18  19
ENDBRANCH  17  18
ENDBRANCH  16  17
ENDBRANCH  15  16
ENDBRANCH  14  15
ENDBRANCH  13  14
ENDBRANCH   1  13
TORSDOF 20
ENDMDL
MODEL 4
REMARK VINA RESULT:    -3.972      1.314      2.701
REMARK INTER + INTRA:         -12.061
REMARK INTER:                  -8.333
REMARK INTRA:                  -3.728
REMARK UNBOUND:                -3.445
REMARK SMILES CCCCCCCCCCCCCCCCCCCCCC(=O)[O-]
REMARK SMILES IDX 12 1 11 2 10 3 9 4 8 5 7 6 6 7 5 8 4 9 3 10 2 11 1 12 13 13
REMARK SMILES IDX 14 14 15 15 16 16 17 17 18 18 19 19 20 20 21 21 22 22 23 23
REMARK SMILES IDX 24 24
REMARK H PARENT
REMARK Flexibility Score: inf
ROOT
ATOM      1  C   UNL     1      -8.727  16.524  -2.733  1.00  0.00     0.000 C 
ENDROOT
BRANCH   1   2
ATOM      2  C   UNL     1      -9.341  15.153  -3.052  1.00  0.00     0.000 C 
BRANCH   2   3
ATOM      3  C   UNL     1      -8.284  14.056  -3.272  1.00  0.00     0.000 C 
BRANCH   3   4
ATOM      4  C   UNL     1      -6.893  14.565  -3.697  1.00  0.00    -0.000 C 
BRANCH   4   5
ATOM      5  C   UNL     1      -6.505  14.136  -5.119  1.00  0.00    -0.000 C 
BRANCH   5   6
ATOM      6  C   UNL     1      -7.237  14.982  -6.168  1.00  0.00    -0.000 C 
BRANCH   6   7
ATOM      7  C   UNL     1      -7.384  14.214  -7.490  1.00  0.00    -0.000 C 
BRANCH   7   8
ATOM      8  C   UNL     1      -8.821  14.235  -8.031  1.00  0.00    -0.000 C 
BRANCH   8   9
ATOM      9  C   UNL     1      -9.839  14.748  -6.997  1.00  0.00    -0.000 C 
BRANCH   9  10
ATOM     10  C   UNL     1     -10.478  13.599  -6.188  1.00  0.00    -0.000 C 
BRANCH  10  11
ATOM     11  C   UNL     1     -10.142  12.202  -6.735  1.00  0.00    -0.003 C 
ATOM     12  C   UNL     1      -9.335  11.354  -5.752  1.00  0.00     0.004 C 
ENDBRANCH  10  11
ENDBRANCH   9  10
ENDBRANCH   8   9
ENDBRANCH   7   8
ENDBRANCH   6   7
ENDBRANCH   5   6
ENDBRANCH   4   5
ENDBRANCH   3   4
ENDBRANCH   2   3
ENDBRANCH   1   2
BRANCH   1  13
ATOM     13  C   UNL     1      -9.100  16.979  -1.317  1.00  0.00     0.000 C 
BRANCH  13  14
ATOM     14  C   UNL     1     -10.230  16.112  -0.743  1.00  0.00     0.000 C 
BRANCH  14  15
ATOM     15  C   UNL     1      -9.859  15.456   0.595  1.00  0.00     0.000 C 
BRANCH  15  16
ATOM     16  C   UNL     1      -9.311  14.028   0.421  1.00  0.00     0.000 C 
BRANCH  16  17
ATOM     17  C   UNL     1      -7.936  13.839   1.083  1.00  0.00     0.000 C 
BRANCH  17  18
ATOM     18  C   UNL     1      -6.790  13.842   0.056  1.00  0.00     0.000 C 
BRANCH  18  19
ATOM     19  C   UNL     1      -6.154  15.231  -0.133  1.00  0.00     0.000 C 
BRANCH  19  20
ATOM     20  C   UNL     1      -5.768  15.956   1.170  1.00  0.00     0.006 C 
BRANCH  20  21
ATOM     21  C   UNL     1      -6.637  17.187   1.453  1.00  0.00     0.053 C 
BRANCH  21  22
ATOM     22  C   UNL     1      -6.957  17.282   2.911  1.00  0.00     0.041 C 
ATOM     23  O   UNL     1      -7.925  16.634   3.390  1.00  0.00    -0.550 OA
ATOM     24  O   UNL     1      -6.159  18.049   3.751  1.00  0.00    -0.550 OA
ENDBRANCH  21  22
ENDBRANCH  20  21
ENDBRANCH  19  20
ENDBRANCH  18  19
ENDBRANCH  17  18
ENDBRANCH  16  17
ENDBRANCH  15  16
ENDBRANCH  14  15
ENDBRANCH  13  14
ENDBRANCH   1  13
TORSDOF 20
ENDMDL
MODEL 5
REMARK VINA RESULT:    -3.933      3.494      8.840
REMARK INTER + INTRA:         -11.976
REMARK INTER:                  -9.562
REMARK INTRA:                  -2.413
REMARK UNBOUND:                -3.445
REMARK SMILES CCCCCCCCCCCCCCCCCCCCCC(=O)[O-]
REMARK SMILES IDX 12 1 11 2 10 3 9 4 8 5 7 6 6 7 5 8 4 9 3 10 2 11 1 12 13 13
REMARK SMILES IDX 14 14 15 15 16 16 17 17 18 18 19 19 20 20 21 21 22 22 23 23
REMARK SMILES IDX 24 24
REMARK H PARENT
REMARK Flexibility Score: inf
ROOT
ATOM      1  C   UNL     1      -8.746  16.566  -2.748  1.00  0.00     0.000 C 
ENDROOT
BRANCH   1   2
ATOM      2  C   UNL     1      -9.374  16.784  -1.363  1.00  0.00     0.000 C 
BRANCH   2   3
ATOM      3  C   UNL     1      -8.339  16.774  -0.224  1.00  0.00     0.000 C 
BRANCH   3   4
ATOM      4  C   UNL     1      -8.324  15.494   0.633  1.00  0.00    -0.000 C 
BRANCH   4   5
ATOM      5  C   UNL     1      -6.934  15.165   1.197  1.00  0.00    -0.000 C 
BRANCH   5   6
ATOM      6  C   UNL     1      -6.251  16.425   1.743  1.00  0.00    -0.000 C 
BRANCH   6   7
ATOM      7  C   UNL     1      -6.506  16.581   3.249  1.00  0.00    -0.000 C 
BRANCH   7   8
ATOM      8  C   UNL     1      -6.627  18.051   3.680  1.00  0.00    -0.000 C 
BRANCH   8   9
ATOM      9  C   UNL     1      -8.014  18.647   3.383  1.00  0.00    -0.000 C 
BRANCH   9  10
ATOM     10  C   UNL     1      -9.140  17.602   3.530  1.00  0.00    -0.000 C 
BRANCH  10  11
ATOM     11  C   UNL     1     -10.382  17.912   2.678  1.00  0.00    -0.003 C 
ATOM     12  C   UNL     1     -11.394  18.802   3.398  1.00  0.00     0.004 C 
ENDBRANCH  10  11
ENDBRANCH   9  10
ENDBRANCH   8   9
ENDBRANCH   7   8
ENDBRANCH   6   7
ENDBRANCH   5   6
ENDBRANCH   4   5
ENDBRANCH   3   4
ENDBRANCH   2   3
ENDBRANCH   1   2
BRANCH   1  13
ATOM     13  C   UNL     1      -7.752  15.399  -2.724  1.00  0.00     0.000 C 
BRANCH  13  14
ATOM     14  C   UNL     1      -8.462  14.069  -3.015  1.00  0.00     0.000 C 
BRANCH  14  15
ATOM     15  C   UNL     1      -9.706  14.236  -3.901  1.00  0.00     0.000 C 
BRANCH  15  16
ATOM     16  C   UNL     1      -9.950  13.021  -4.813  1.00  0.00     0.000 C 
BRANCH  16  17
ATOM     17  C   UNL     1     -11.024  13.290  -5.880  1.00  0.00     0.000 C 
BRANCH  17  18
ATOM     18  C   UNL     1     -10.462  13.197  -7.309  1.00  0.00     0.000 C 
BRANCH  18  19
ATOM     19  C   UNL     1     -10.041  14.564  -7.881  1.00  0.00     0.000 C 
BRANCH  19  20
ATOM     20  C   UNL     1      -8.582  14.646  -8.369  1.00  0.00     0.006 C 
BRANCH  20  21
ATOM     21  C   UNL     1      -7.634  13.730  -7.585  1.00  0.00     0.053 C 
BRANCH  21  22
ATOM     22  C   UNL     1      -6.958  14.490  -6.488  1.00  0.00     0.041 C 
ATOM     23  O   UNL     1      -7.284  15.682  -6.250  1.00  0.00    -0.550 OA
ATOM     24  O   UNL     1      -5.999  13.867  -5.699  1.00  0.00    -0.550 OA
ENDBRANCH  21  22
ENDBRANCH  20  21
ENDBRANCH  19  20
ENDBRANCH  18  19
ENDBRANCH  17  18
ENDBRANCH  16  17
ENDBRANCH  15  16
ENDBRANCH  14  15
ENDBRANCH  13  14
ENDBRANCH   1  13
TORSDOF 20
ENDMDL
MODEL 6
REMARK VINA RESULT:    -3.907      3.815      7.695
REMARK INTER + INTRA:         -11.921
REMARK INTER:                  -8.082
REMARK INTRA:                  -3.839
REMARK UNBOUND:                -3.445
REMARK SMILES CCCCCCCCCCCCCCCCCCCCCC(=O)[O-]
REMARK SMILES IDX 12 1 11 2 10 3 9 4 8 5 7 6 6 7 5 8 4 9 3 10 2 11 1 12 13 13
REMARK SMILES IDX 14 14 15 15 16 16 17 17 18 18 19 19 20 20 21 21 22 22 23 23
REMARK SMILES IDX 24 24
REMARK H PARENT
REMARK Flexibility Score: inf
ROOT
ATOM      1  C   UNL     1      -9.670  16.870  -1.118  1.00  0.00     0.000 C 
ENDROOT
BRANCH   1   2
ATOM      2  C   UNL     1      -8.743  17.154  -2.309  1.00  0.00     0.000 C 
BRANCH   2   3
ATOM      3  C   UNL     1      -8.698  16.000  -3.327  1.00  0.00     0.000 C 
BRANCH   3   4
ATOM      4  C   UNL     1      -7.417  15.145  -3.288  1.00  0.00    -0.000 C 
BRANCH   4   5
ATOM      5  C   UNL     1      -7.660  13.721  -2.768  1.00  0.00    -0.000 C 
BRANCH   5   6
ATOM      6  C   UNL     1      -7.471  13.652  -1.247  1.00  0.00    -0.000 C 
BRANCH   6   7
ATOM      7  C   UNL     1      -6.063  14.117  -0.846  1.00  0.00    -0.000 C 
BRANCH   7   8
ATOM      8  C   UNL     1      -6.074  15.067   0.361  1.00  0.00    -0.000 C 
BRANCH   8   9
ATOM      9  C   UNL     1      -7.412  15.047   1.121  1.00  0.00    -0.000 C 
BRANCH   9  10
ATOM     10  C   UNL     1      -7.690  16.381   1.846  1.00  0.00    -0.000 C 
BRANCH  10  11
ATOM     11  C   UNL     1      -6.482  17.334   1.865  1.00  0.00    -0.003 C 
ATOM     12  C   UNL     1      -6.495  18.291   3.056  1.00  0.00     0.004 C 
ENDBRANCH  10  11
ENDBRANCH   9  10
ENDBRANCH   8   9
ENDBRANCH   7   8
ENDBRANCH   6   7
ENDBRANCH   5   6
ENDBRANCH   4   5
ENDBRANCH   3   4
ENDBRANCH   2   3
ENDBRANCH   1   2
BRANCH   1  13
ATOM     13  C   UNL     1     -10.818  15.938  -1.524  1.00  0.00     0.000 C 
BRANCH  13  14
ATOM     14  C   UNL     1     -10.875  14.708  -0.606  1.00  0.00     0.000 C 
BRANCH  14  15
ATOM     15  C   UNL     1     -11.189  13.410  -1.365  1.00  0.00     0.000 C 
BRANCH  15  16
ATOM     16  C   UNL     1     -11.388  13.641  -2.874  1.00  0.00     0.000 C 
BRANCH  16  17
ATOM     17  C   UNL     1     -11.258  12.346  -3.691  1.00  0.00     0.000 C 
BRANCH  17  18
ATOM     18  C   UNL     1     -11.193  12.617  -5.205  1.00  0.00     0.000 C 
BRANCH  18  19
ATOM     19  C   UNL     1      -9.944  13.416  -5.620  1.00  0.00     0.000 C 
BRANCH  19  20
ATOM     20  C   UNL     1      -8.966  12.666  -6.544  1.00  0.00     0.006 C 
BRANCH  20  21
ATOM     21  C   UNL     1      -7.583  13.326  -6.614  1.00  0.00     0.053 C 
BRANCH  21  22
ATOM     22  C   UNL     1      -7.667  14.652  -7.300  1.00  0.00     0.041 C 
ATOM     23  O   UNL     1      -7.156  15.673  -6.769  1.00  0.00    -0.550 OA
ATOM     24  O   UNL     1      -8.269  14.754  -8.548  1.00  0.00    -0.550 OA
ENDBRANCH  21  22
ENDBRANCH  20  21
ENDBRANCH  19  20
ENDBRANCH  18  19
ENDBRANCH  17  18
ENDBRANCH  16  17
ENDBRANCH  15  16
ENDBRANCH  14  15
ENDBRANCH  13  14
ENDBRANCH   1  13
TORSDOF 20
ENDMDL
MODEL 7
REMARK VINA RESULT:    -3.887      1.762      3.570
REMARK INTER + INTRA:         -11.876
REMARK INTER:                  -7.783
REMARK INTRA:                  -4.094
REMARK UNBOUND:                -3.445
REMARK SMILES CCCCCCCCCCCCCCCCCCCCCC(=O)[O-]
REMARK SMILES IDX 12 1 11 2 10 3 9 4 8 5 7 6 6 7 5 8 4 9 3 10 2 11 1 12 13 13
REMARK SMILES IDX 14 14 15 15 16 16 17 17 18 18 19 19 20 20 21 21 22 22 23 23
REMARK SMILES IDX 24 24
REMARK H PARENT
REMARK Flexibility Score: inf
ROOT
ATOM      1  C   UNL     1      -8.755  16.885  -2.592  1.00  0.00     0.000 C 
ENDROOT
BRANCH   1   2
ATOM      2  C   UNL     1      -8.732  15.691  -3.557  1.00  0.00     0.000 C 
BRANCH   2   3
ATOM      3  C   UNL     1      -8.435  16.098  -5.012  1.00  0.00     0.000 C 
BRANCH   3   4
ATOM      4  C   UNL     1      -7.399  15.217  -5.737  1.00  0.00    -0.000 C 
BRANCH   4   5
ATOM      5  C   UNL     1      -6.703  14.217  -4.803  1.00  0.00    -0.000 C 
BRANCH   5   6
ATOM      6  C   UNL     1      -7.005  12.772  -5.222  1.00  0.00    -0.000 C 
BRANCH   6   7
ATOM      7  C   UNL     1      -7.804  12.040  -4.134  1.00  0.00    -0.000 C 
BRANCH   7   8
ATOM      8  C   UNL     1      -9.173  11.553  -4.632  1.00  0.00    -0.000 C 
BRANCH   8   9
ATOM      9  C   UNL     1     -10.097  12.708  -5.058  1.00  0.00    -0.000 C 
BRANCH   9  10
ATOM     10  C   UNL     1     -10.510  12.607  -6.542  1.00  0.00    -0.000 C 
BRANCH  10  11
ATOM     11  C   UNL     1     -11.314  13.819  -7.041  1.00  0.00    -0.003 C 
ATOM     12  C   UNL     1     -10.457  14.836  -7.793  1.00  0.00     0.004 C 
ENDBRANCH  10  11
ENDBRANCH   9  10
ENDBRANCH   8   9
ENDBRANCH   7   8
ENDBRANCH   6   7
ENDBRANCH   5   6
ENDBRANCH   4   5
ENDBRANCH   3   4
ENDBRANCH   2   3
ENDBRANCH   1   2
BRANCH   1  13
ATOM     13  C   UNL     1      -9.819  16.695  -1.505  1.00  0.00     0.000 C 
BRANCH  13  14
ATOM     14  C   UNL     1     -10.413  15.280  -1.562  1.00  0.00     0.000 C 
BRANCH  14  15
ATOM     15  C   UNL     1      -9.937  14.385  -0.407  1.00  0.00     0.000 C 
BRANCH  15  16
ATOM     16  C   UNL     1      -9.078  13.203  -0.892  1.00  0.00     0.000 C 
BRANCH  16  17
ATOM     17  C   UNL     1      -7.718  13.130  -0.177  1.00  0.00     0.000 C 
BRANCH  17  18
ATOM     18  C   UNL     1      -6.566  13.632  -1.066  1.00  0.00     0.000 C 
BRANCH  18  19
ATOM     19  C   UNL     1      -6.176  15.093  -0.777  1.00  0.00     0.000 C 
BRANCH  19  20
ATOM     20  C   UNL     1      -6.250  15.510   0.704  1.00  0.00     0.006 C 
BRANCH  20  21
ATOM     21  C   UNL     1      -7.115  16.755   0.935  1.00  0.00     0.053 C 
BRANCH  21  22
ATOM     22  C   UNL     1      -8.166  16.481   1.963  1.00  0.00     0.041 C 
ATOM     23  O   UNL     1      -9.069  17.330   2.187  1.00  0.00    -0.550 OA
ATOM     24  O   UNL     1      -8.176  15.270   2.644  1.00  0.00    -0.550 OA
ENDBRANCH  21  22
ENDBRANCH  20  21
ENDBRANCH  19  20
ENDBRANCH  18  19
ENDBRANCH  17  18
ENDBRANCH  16  17
ENDBRANCH  15  16
ENDBRANCH  14  15
ENDBRANCH  13  14
ENDBRANCH   1  13
TORSDOF 20
ENDMDL
MODEL 8
REMARK VINA RESULT:    -3.874      1.250      2.970
REMARK INTER + INTRA:         -11.849
REMARK INTER:                  -8.353
REMARK INTRA:                  -3.496
REMARK UNBOUND:                -3.445
REMARK SMILES CCCCCCCCCCCCCCCCCCCCCC(=O)[O-]
REMARK SMILES IDX 12 1 11 2 10 3 9 4 8 5 7 6 6 7 5 8 4 9 3 10 2 11 1 12 13 13
REMARK SMILES IDX 14 14 15 15 16 16 17 17 18 18 19 19 20 20 21 21 22 22 23 23
REMARK SMILES IDX 24 24
REMARK H PARENT
REMARK Flexibility Score: inf
ROOT
ATOM      1  C   UNL     1      -9.530  16.584  -0.786  1.00  0.00     0.000 C 
ENDROOT
BRANCH   1   2
ATOM      2  C   UNL     1     -10.158  15.711  -1.883  1.00  0.00     0.000 C 
BRANCH   2   3
ATOM      3  C   UNL     1      -9.181  15.389  -3.028  1.00  0.00     0.000 C 
BRANCH   3   4
ATOM      4  C   UNL     1      -9.079  13.897  -3.399  1.00  0.00    -0.000 C 
BRANCH   4   5
ATOM      5  C   UNL     1      -7.630  13.399  -3.497  1.00  0.00    -0.000 C 
BRANCH   5   6
ATOM      6  C   UNL     1      -6.675  14.552  -3.834  1.00  0.00    -0.000 C 
BRANCH   6   7
ATOM      7  C   UNL     1      -6.417  14.629  -5.346  1.00  0.00    -0.000 C 
BRANCH   7   8
ATOM      8  C   UNL     1      -6.413  13.247  -6.017  1.00  0.00    -0.000 C 
BRANCH   8   9
ATOM      9  C   UNL     1      -7.399  13.154  -7.195  1.00  0.00    -0.000 C 
BRANCH   9  10
ATOM     10  C   UNL     1      -8.284  14.413  -7.314  1.00  0.00    -0.000 C 
BRANCH  10  11
ATOM     11  C   UNL     1      -9.775  14.144  -7.053  1.00  0.00    -0.003 C 
ATOM     12  C   UNL     1     -10.698  15.074  -7.839  1.00  0.00     0.004 C 
ENDBRANCH  10  11
ENDBRANCH   9  10
ENDBRANCH   8   9
ENDBRANCH   7   8
ENDBRANCH   6   7
ENDBRANCH   5   6
ENDBRANCH   4   5
ENDBRANCH   3   4
ENDBRANCH   2   3
ENDBRANCH   1   2
BRANCH   1  13
ATOM     13  C   UNL     1     -10.001  16.143   0.605  1.00  0.00     0.000 C 
BRANCH  13  14
ATOM     14  C   UNL     1     -10.050  14.611   0.707  1.00  0.00     0.000 C 
BRANCH  14  15
ATOM     15  C   UNL     1      -8.738  14.005   1.229  1.00  0.00     0.000 C 
BRANCH  15  16
ATOM     16  C   UNL     1      -7.906  13.347   0.114  1.00  0.00     0.000 C 
BRANCH  16  17
ATOM     17  C   UNL     1      -6.426  13.762   0.160  1.00  0.00     0.000 C 
BRANCH  17  18
ATOM     18  C   UNL     1      -6.239  15.276  -0.049  1.00  0.00     0.000 C 
BRANCH  18  19
ATOM     19  C   UNL     1      -5.755  16.003   1.219  1.00  0.00     0.000 C 
BRANCH  19  20
ATOM     20  C   UNL     1      -6.577  17.245   1.614  1.00  0.00     0.006 C 
BRANCH  20  21
ATOM     21  C   UNL     1      -7.342  17.063   2.932  1.00  0.00     0.053 C 
BRANCH  21  22
ATOM     22  C   UNL     1      -6.900  18.076   3.940  1.00  0.00     0.041 C 
ATOM     23  O   UNL     1      -6.159  17.734   4.898  1.00  0.00    -0.550 OA
ATOM     24  O   UNL     1      -7.268  19.409   3.796  1.00  0.00    -0.550 OA
ENDBRANCH  21  22
ENDBRANCH  20  21
ENDBRANCH  19  20
ENDBRANCH  18  19
ENDBRANCH  17  18
ENDBRANCH  16  17
ENDBRANCH  15  16
ENDBRANCH  14  15
ENDBRANCH  13  14
ENDBRANCH   1  13
TORSDOF 20
ENDMDL
MODEL 9
REMARK VINA RESULT:    -3.867      1.636      3.075
REMARK INTER + INTRA:         -11.833
REMARK INTER:                  -7.553
REMARK INTRA:                  -4.280
REMARK UNBOUND:                -3.445
REMARK SMILES CCCCCCCCCCCCCCCCCCCCCC(=O)[O-]
REMARK SMILES IDX 12 1 11 2 10 3 9 4 8 5 7 6 6 7 5 8 4 9 3 10 2 11 1 12 13 13
REMARK SMILES IDX 14 14 15 15 16 16 17 17 18 18 19 19 20 20 21 21 22 22 23 23
REMARK SMILES IDX 24 24
REMARK H PARENT
REMARK Flexibility Score: inf
ROOT
ATOM      1  C   UNL     1      -8.763  17.222  -2.262  1.00  0.00     0.000 C 
ENDROOT
BRANCH   1   2
ATOM      2  C   UNL     1      -9.702  16.870  -1.099  1.00  0.00     0.000 C 
BRANCH   2   3
ATOM      3  C   UNL     1     -10.728  15.781  -1.461  1.00  0.00     0.000 C 
BRANCH   3   4
ATOM      4  C   UNL     1     -10.663  14.509  -0.593  1.00  0.00    -0.000 C 
BRANCH   4   5
ATOM      5  C   UNL     1     -10.884  13.221  -1.398  1.00  0.00    -0.000 C 
BRANCH   5   6
ATOM      6  C   UNL     1     -11.380  13.537  -2.815  1.00  0.00    -0.000 C 
BRANCH   6   7
ATOM      7  C   UNL     1     -10.827  12.525  -3.830  1.00  0.00    -0.000 C 
BRANCH   7   8
ATOM      8  C   UNL     1     -11.001  12.990  -5.284  1.00  0.00    -0.000 C 
BRANCH   8   9
ATOM      9  C   UNL     1      -9.671  13.043  -6.056  1.00  0.00    -0.000 C 
BRANCH   9  10
ATOM     10  C   UNL     1      -9.306  14.478  -6.490  1.00  0.00    -0.000 C 
BRANCH  10  11
ATOM     11  C   UNL     1      -8.062  14.550  -7.392  1.00  0.00    -0.003 C 
ATOM     12  C   UNL     1      -6.795  14.044  -6.704  1.00  0.00     0.004 C 
ENDBRANCH  10  11
ENDBRANCH   9  10
ENDBRANCH   8   9
ENDBRANCH   7   8
ENDBRANCH   6   7
ENDBRANCH   5   6
ENDBRANCH   4   5
ENDBRANCH   3   4
ENDBRANCH   2   3
ENDBRANCH   1   2
BRANCH   1  13
ATOM     13  C   UNL     1      -8.763  16.116  -3.324  1.00  0.00     0.000 C 
BRANCH  13  14
ATOM     14  C   UNL     1      -7.427  15.358  -3.324  1.00  0.00     0.000 C 
BRANCH  14  15
ATOM     15  C   UNL     1      -7.559  13.915  -2.812  1.00  0.00     0.000 C 
BRANCH  15  16
ATOM     16  C   UNL     1      -7.018  13.743  -1.382  1.00  0.00     0.000 C 
BRANCH  16  17
ATOM     17  C   UNL     1      -6.136  14.922  -0.939  1.00  0.00     0.000 C 
BRANCH  17  18
ATOM     18  C   UNL     1      -6.646  15.575   0.359  1.00  0.00     0.000 C 
BRANCH  18  19
ATOM     19  C   UNL     1      -7.564  14.649   1.178  1.00  0.00     0.000 C 
BRANCH  19  20
ATOM     20  C   UNL     1      -8.281  15.322   2.363  1.00  0.00     0.006 C 
BRANCH  20  21
ATOM     21  C   UNL     1      -8.240  16.855   2.297  1.00  0.00     0.053 C 
BRANCH  21  22
ATOM     22  C   UNL     1      -9.591  17.429   2.588  1.00  0.00     0.041 C 
ATOM     23  O   UNL     1     -10.630  16.770   2.320  1.00  0.00    -0.550 OA
ATOM     24  O   UNL     1      -9.702  18.673   3.196  1.00  0.00    -0.550 OA
ENDBRANCH  21  22
ENDBRANCH  20  21
ENDBRANCH  19  20
ENDBRANCH  18  19
ENDBRANCH  17  18
ENDBRANCH  16  17
ENDBRANCH  15  16
ENDBRANCH  14  15
ENDBRANCH  13  14
ENDBRANCH   1  13
TORSDOF 20
ENDMDL
