REMARK SMILES CCCCCCCCCCCCCCCCCCCCCCCCCCCCCC(=O)[O-]
REMARK SMILES IDX 16 1 17 2 18 3 19 4 20 5 21 6 22 7 23 8 24 9 25 10 26 11
REMARK SMILES IDX 27 12 28 13 29 14 30 15 31 16 32 17 15 18 14 19 13 20 12 21
REMARK SMILES IDX 11 22 10 23 9 24 8 25 7 26 6 27 5 28 4 29 3 30 2 31 1 32
REMARK H PARENT
REMARK Flexibility Score: inf
ROOT
ATOM      1  C   UNL     1      -0.800  -0.585   0.137  1.00  0.00     0.000 C 
ENDROOT
BRANCH   1   2
ATOM      2  C   UNL     1      -1.903  -1.557   0.608  1.00  0.00     0.000 C 
BRANCH   2   3
ATOM      3  C   UNL     1      -2.389  -1.342   2.055  1.00  0.00     0.000 C 
BRANCH   3   4
ATOM      4  C   UNL     1      -2.926   0.072   2.360  1.00  0.00     0.000 C 
BRANCH   4   5
ATOM      5  C   UNL     1      -4.088   0.532   1.461  1.00  0.00     0.000 C 
BRANCH   5   6
ATOM      6  C   UNL     1      -5.338  -0.354   1.607  1.00  0.00     0.000 C 
BRANCH   6   7
ATOM      7  C   UNL     1      -6.554   0.212   0.857  1.00  0.00     0.000 C 
BRANCH   7   8
ATOM      8  C   UNL     1      -6.434   0.041  -0.669  1.00  0.00     0.000 C 
BRANCH   8   9
ATOM      9  C   UNL     1      -7.663   0.578  -1.419  1.00  0.00     0.000 C 
BRANCH   9  10
ATOM     10  C   UNL     1      -8.893  -0.335  -1.270  1.00  0.00     0.000 C 
BRANCH  10  11
ATOM     11  C   UNL     1     -10.062   0.093  -2.172  1.00  0.00     0.000 C 
BRANCH  11  12
ATOM     12  C   UNL     1     -10.693   1.450  -1.808  1.00  0.00     0.000 C 
BRANCH  12  13
ATOM     13  C   UNL     1     -11.378   1.465  -0.425  1.00  0.00     0.006 C 
BRANCH  13  14
ATOM     14  C   UNL     1     -10.544   2.200   0.633  1.00  0.00     0.053 C 
BRANCH  14  15
ATOM     15  C   UNL     1     -11.239   2.185   1.958  1.00  0.00     0.041 C 
ATOM     16  O   UNL     1     -12.233   2.933   2.161  1.00  0.00    -0.550 OA
ATOM     17  O   UNL     1     -10.812   1.321   2.960  1.00  0.00    -0.550 OA
ENDBRANCH  14  15
ENDBRANCH  13  14
ENDBRANCH  12  13
ENDBRANCH  11  12
ENDBRANCH  10  11
ENDBRANCH   9  10
ENDBRANCH   8   9
ENDBRANCH   7   8
ENDBRANCH   6   7
ENDBRANCH   5   6
ENDBRANCH   4   5
ENDBRANCH   3   4
ENDBRANCH   2   3
ENDBRANCH   1   2
BRANCH   1  18
ATOM     18  C   UNL     1       0.473  -0.568   1.004  1.00  0.00     0.000 C 
BRANCH  18  19
ATOM     19  C   UNL     1       1.241  -1.900   0.961  1.00  0.00     0.000 C 
BRANCH  19  20
ATOM     20  C   UNL     1       2.472  -1.917   1.886  1.00  0.00     0.000 C 
BRANCH  20  21
ATOM     21  C   UNL     1       3.536  -0.843   1.596  1.00  0.00     0.000 C 
BRANCH  21  22
ATOM     22  C   UNL     1       4.123  -0.945   0.178  1.00  0.00     0.000 C 
BRANCH  22  23
ATOM     23  C   UNL     1       5.222   0.099  -0.089  1.00  0.00     0.000 C 
BRANCH  23  24
ATOM     24  C   UNL     1       6.514  -0.083   0.732  1.00  0.00    -0.000 C 
BRANCH  24  25
ATOM     25  C   UNL     1       7.205  -1.452   0.573  1.00  0.00    -0.000 C 
BRANCH  25  26
ATOM     26  C   UNL     1       7.541  -1.851  -0.878  1.00  0.00    -0.000 C 
BRANCH  26  27
ATOM     27  C   UNL     1       8.421  -0.843  -1.639  1.00  0.00    -0.000 C 
BRANCH  27  28
ATOM     28  C   UNL     1       9.801  -0.646  -0.989  1.00  0.00    -0.000 C 
BRANCH  28  29
ATOM     29  C   UNL     1      10.782   0.127  -1.891  1.00  0.00    -0.000 C 
BRANCH  29  30
ATOM     30  C   UNL     1      10.323   1.544  -2.282  1.00  0.00    -0.000 C 
BRANCH  30  31
ATOM     31  C   UNL     1      10.144   2.472  -1.072  1.00  0.00    -0.003 C 
ATOM     32  C   UNL     1       9.840   3.900  -1.514  1.00  0.00     0.004 C 
ENDBRANCH  30  31
ENDBRANCH  29  30
ENDBRANCH  28  29
ENDBRANCH  27  28
ENDBRANCH  26  27
ENDBRANCH  25  26
ENDBRANCH  24  25
ENDBRANCH  23  24
ENDBRANCH  22  23
ENDBRANCH  21  22
ENDBRANCH  20  21
ENDBRANCH  19  20
ENDBRANCH  18  19
ENDBRANCH   1  18
TORSDOF 28
