REMARK SMILES CC1(C)CC[C@@]2(C(=O)[O-])CC[C@]3(C)C(=CC[C@H]4[C@]5(C)CC[C@@H](O)C(C)(C)[C@H]5CC[C@@]43C)[C@@H]2C1
REMARK SMILES IDX 6 1 5 2 10 3 32 4 4 5 11 6 14 7 33 8 2 9 12 10 15 11 1 12
REMARK SMILES IDX 3 13 13 14 30 15 16 16 17 17 29 18 31 19 18 20 28 21 27 22
REMARK SMILES IDX 20 23 19 24 24 25 21 26 22 27 25 28 26 29 7 30 8 31 9 32
REMARK SMILES IDX 23 33
REMARK H PARENT 23 34
REMARK Flexibility Score: inf
ROOT
ATOM      1  C   UNL     1      -3.504   0.203  -1.159  1.00  0.00     0.017 C 
ATOM      2  C   UNL     1      -4.649   1.254  -1.412  1.00  0.00     0.014 C 
ATOM      3  C   UNL     1      -2.259   0.546  -2.027  1.00  0.00     0.014 C 
ATOM      4  C   UNL     1      -3.045   0.327   0.322  1.00  0.00     0.028 C 
ATOM      5  C   UNL     1      -5.371   1.772  -0.138  1.00  0.00     0.007 C 
ATOM      6  C   UNL     1      -0.982  -0.316  -1.772  1.00  0.00     0.013 C 
ATOM      7  C   UNL     1      -1.647  -0.225   0.655  1.00  0.00    -0.064 C 
ATOM      8  C   UNL     1      -4.160  -0.000   1.340  1.00  0.00     0.015 C 
ATOM      9  C   UNL     1      -5.520   0.727   1.012  1.00  0.00    -0.035 C 
ATOM     10  C   UNL     1      -0.850  -1.066  -0.383  1.00  0.00    -0.006 C 
ATOM     11  C   UNL     1      -1.035   0.402   1.695  1.00  0.00    -0.027 C 
ATOM     12  C   UNL     1      -6.001   1.477   2.276  1.00  0.00     0.011 C 
ATOM     13  C   UNL     1      -6.623  -0.290   0.637  1.00  0.00     0.011 C 
ATOM     14  C   UNL     1      -1.502  -2.482  -0.535  1.00  0.00     0.017 C 
ATOM     15  C   UNL     1       0.699  -1.273   0.077  1.00  0.00    -0.020 C 
ATOM     16  C   UNL     1       0.443   0.438   1.936  1.00  0.00     0.032 C 
ATOM     17  C   UNL     1       1.238   0.094   0.657  1.00  0.00     0.006 C 
ATOM     18  C   UNL     1       1.578  -1.756  -1.131  1.00  0.00     0.008 C 
ATOM     19  C   UNL     1       0.788  -2.381   1.189  1.00  0.00     0.012 C 
ATOM     20  C   UNL     1       2.823   0.290   0.781  1.00  0.00    -0.025 C 
ATOM     21  C   UNL     1       3.083  -1.645  -0.892  1.00  0.00     0.005 C 
ATOM     22  C   UNL     1       3.462  -0.176  -0.579  1.00  0.00     0.003 C 
ATOM     23  C   UNL     1       3.119   1.818   0.945  1.00  0.00     0.010 C 
ATOM     24  C   UNL     1       3.427  -0.450   2.025  1.00  0.00     0.012 C 
ATOM     25  C   UNL     1       4.982   0.192  -0.812  1.00  0.00    -0.006 C 
ATOM     26  C   UNL     1       4.598   2.200   0.775  1.00  0.00     0.033 C 
ATOM     27  C   UNL     1       5.172   1.724  -0.567  1.00  0.00     0.120 C 
ATOM     28  C   UNL     1       5.954  -0.643   0.062  1.00  0.00     0.014 C 
ATOM     29  C   UNL     1       5.364  -0.075  -2.297  1.00  0.00     0.014 C 
ENDROOT
BRANCH   1  30
ATOM     30  C   UNL     1      -4.061  -1.153  -1.584  1.00  0.00     0.048 C 
ATOM     31  O   UNL     1      -4.229  -1.398  -2.810  1.00  0.00    -0.550 OA
ATOM     32  O   UNL     1      -4.441  -2.122  -0.665  1.00  0.00    -0.550 OA
ENDBRANCH   1  30
BRANCH  27  33
ATOM     33  O   UNL     1       6.536   2.064  -0.634  1.00  0.00    -0.393 OA
ATOM     34  H   UNL     1       6.583   3.041  -0.806  1.00  0.00     0.210 HD
ENDBRANCH  27  33
TORSDOF 2
