REMARK SMILES CCCCCCCCCCCCCC(=O)[O-]
REMARK SMILES IDX 8 1 9 2 10 3 11 4 12 5 13 6 14 7 15 8 16 9 7 10 6 11 5 12
REMARK SMILES IDX 4 13 3 14 2 15 1 16
REMARK H PARENT
REMARK Flexibility Score: inf
ROOT
ATOM      1  C   UNL     1       0.879  -1.423   0.229  1.00  0.00     0.000 C 
ENDROOT
BRANCH   1   2
ATOM      2  C   UNL     1       2.287  -1.313  -0.374  1.00  0.00     0.000 C 
BRANCH   2   3
ATOM      3  C   UNL     1       3.321  -0.750   0.617  1.00  0.00     0.000 C 
BRANCH   3   4
ATOM      4  C   UNL     1       3.031   0.678   1.124  1.00  0.00     0.000 C 
BRANCH   4   5
ATOM      5  C   UNL     1       2.858   1.742   0.022  1.00  0.00     0.006 C 
BRANCH   5   6
ATOM      6  C   UNL     1       4.080   1.909  -0.895  1.00  0.00     0.053 C 
BRANCH   6   7
ATOM      7  C   UNL     1       5.291   2.361  -0.139  1.00  0.00     0.041 C 
ATOM      8  O   UNL     1       5.406   3.565   0.210  1.00  0.00    -0.550 OA
ATOM      9  O   UNL     1       6.276   1.446   0.210  1.00  0.00    -0.550 OA
ENDBRANCH   6   7
ENDBRANCH   5   6
ENDBRANCH   4   5
ENDBRANCH   3   4
ENDBRANCH   2   3
ENDBRANCH   1   2
BRANCH   1  10
ATOM     10  C   UNL     1      -0.084  -2.116  -0.747  1.00  0.00     0.000 C 
BRANCH  10  11
ATOM     11  C   UNL     1      -1.478  -2.344  -0.142  1.00  0.00    -0.000 C 
BRANCH  11  12
ATOM     12  C   UNL     1      -2.264  -1.037   0.044  1.00  0.00    -0.000 C 
BRANCH  12  13
ATOM     13  C   UNL     1      -3.709  -1.322   0.478  1.00  0.00    -0.000 C 
BRANCH  13  14
ATOM     14  C   UNL     1      -4.476  -0.050   0.875  1.00  0.00    -0.000 C 
BRANCH  14  15
ATOM     15  C   UNL     1      -4.726   0.916  -0.302  1.00  0.00    -0.003 C 
ATOM     16  C   UNL     1      -3.763   2.103  -0.296  1.00  0.00     0.004 C 
ENDBRANCH  14  15
ENDBRANCH  13  14
ENDBRANCH  12  13
ENDBRANCH  11  12
ENDBRANCH  10  11
ENDBRANCH   1  10
TORSDOF 12
