REMARK SMILES O=c1cc(-c2ccc(O)c(O)c2)oc2cc(O)c([C@H]3O[C@@H](CO)C(O)[C@@H](O)[C@H]3O)c(O)c12
REMARK SMILES IDX 4 1 3 2 2 3 1 4 32 5 14 6 13 7 15 8 16 9 18 10 30 11 5 12
REMARK SMILES IDX 6 13 7 14 8 15 12 16 10 17 9 18 11 20 31 22 17 24 19 26
REMARK SMILES IDX 28 27 20 28 26 29 21 30 24 31 29 32 27 34 22 36 23 37 25 39
REMARK H PARENT 9 19 11 21 31 23 17 25 29 33 27 35 23 38 25 40
REMARK Flexibility Score: inf
ROOT
ATOM      1  C   UNL     1       3.546  -0.572   0.172  1.00  0.00     0.138 A 
ATOM      2  C   UNL     1       2.906  -1.670   0.713  1.00  0.00     0.100 A 
ATOM      3  C   UNL     1       1.508  -1.632   0.814  1.00  0.00     0.197 A 
ATOM      4  O   UNL     1       0.930  -2.630   1.309  1.00  0.00    -0.289 OA
ATOM      5  C   UNL     1       0.863  -0.507   0.365  1.00  0.00     0.107 A 
ATOM      6  C   UNL     1       1.556   0.540  -0.159  1.00  0.00     0.146 A 
ATOM      7  O   UNL     1       2.857   0.480  -0.239  1.00  0.00    -0.456 OA
ATOM      8  C   UNL     1       0.862   1.652  -0.600  1.00  0.00     0.094 A 
ATOM      9  C   UNL     1      -0.511   1.749  -0.531  1.00  0.00     0.128 A 
ATOM     10  C   UNL     1      -1.256   0.671   0.006  1.00  0.00     0.068 A 
ATOM     11  C   UNL     1      -0.502  -0.420   0.434  1.00  0.00     0.140 A 
ENDROOT
BRANCH   1  12
ATOM     12  C   UNL     1       4.998  -0.581   0.058  1.00  0.00     0.021 A 
ATOM     13  C   UNL     1       5.765  -1.647   0.417  1.00  0.00     0.016 A 
ATOM     14  C   UNL     1       7.162  -1.615   0.295  1.00  0.00     0.051 A 
ATOM     15  C   UNL     1       7.811  -0.499  -0.190  1.00  0.00     0.157 A 
ATOM     16  C   UNL     1       5.659   0.547  -0.434  1.00  0.00     0.062 A 
ATOM     17  C   UNL     1       7.035   0.579  -0.551  1.00  0.00     0.158 A 
BRANCH  15  18
ATOM     18  O   UNL     1       9.208  -0.462  -0.312  1.00  0.00    -0.504 OA
ATOM     19  H   UNL     1       9.805  -0.769   0.472  1.00  0.00     0.293 HD
ENDBRANCH  15  18
BRANCH  17  20
ATOM     20  O   UNL     1       7.685   1.712  -1.037  1.00  0.00    -0.504 OA
ATOM     21  H   UNL     1       7.531   2.568  -0.472  1.00  0.00     0.293 HD
ENDBRANCH  17  20
ENDBRANCH   1  12
BRANCH  11  22
ATOM     22  O   UNL     1      -1.173  -1.490   0.966  1.00  0.00    -0.506 OA
ATOM     23  H   UNL     1      -1.191  -2.406   0.484  1.00  0.00     0.293 HD
ENDBRANCH  11  22
BRANCH   9  24
ATOM     24  O   UNL     1      -1.120   2.900  -0.993  1.00  0.00    -0.507 OA
ATOM     25  H   UNL     1      -2.079   3.081  -0.809  1.00  0.00     0.293 HD
ENDBRANCH   9  24
BRANCH  10  26
ATOM     26  C   UNL     1      -2.639   0.814   0.051  1.00  0.00     0.188 C 
ATOM     27  C   UNL     1      -3.430  -0.180   0.973  1.00  0.00     0.179 C 
ATOM     28  O   UNL     1      -3.329   0.526  -1.238  1.00  0.00    -0.362 OA
ATOM     29  C   UNL     1      -5.030   0.288   1.197  1.00  0.00     0.177 C 
ATOM     30  C   UNL     1      -4.770   1.027  -1.347  1.00  0.00     0.176 C 
ATOM     31  C   UNL     1      -4.899   0.660  -0.083  1.00  0.00     0.177 C 
BRANCH  27  32
ATOM     32  O   UNL     1      -3.648  -1.340   0.262  1.00  0.00    -0.387 OA
ATOM     33  H   UNL     1      -3.264  -1.310  -0.652  1.00  0.00     0.211 HD
ENDBRANCH  27  32
BRANCH  29  34
ATOM     34  O   UNL     1      -5.596  -0.914   1.599  1.00  0.00    -0.387 OA
ATOM     35  H   UNL     1      -6.026  -0.802   2.510  1.00  0.00     0.211 HD
ENDBRANCH  29  34
BRANCH  30  36
ATOM     36  C   UNL     1      -5.295   0.240  -2.507  1.00  0.00     0.191 C 
BRANCH  36  37
ATOM     37  O   UNL     1      -5.291  -1.126  -2.364  1.00  0.00    -0.394 OA
ATOM     38  H   UNL     1      -4.428  -1.485  -2.734  1.00  0.00     0.210 HD
ENDBRANCH  36  37
ENDBRANCH  30  36
BRANCH  31  39
ATOM     39  O   UNL     1      -6.581   0.509  -0.291  1.00  0.00    -0.388 OA
ATOM     40  H   UNL     1      -6.470  -0.470  -0.360  1.00  0.00     0.211 HD
ENDBRANCH  31  39
ENDBRANCH  10  26
TORSDOF 11
