REMARK SMILES O=c1c(O[C@@H]2O[C@@H](CO)[C@H](O)[C@@H](O)[C@@H]2O)c(-c2ccc(O)c(O)c2)oc2cc(O)cc(O)c12
REMARK SMILES IDX 4 1 3 2 16 3 25 4 2 5 26 6 1 7 33 8 27 9 31 10 28 11 30 12
REMARK SMILES IDX 17 13 18 14 19 15 20 16 24 17 22 18 21 19 23 21 32 23 29 25
REMARK SMILES IDX 5 27 14 28 6 29 12 30 7 31 10 32 15 33 13 35 8 37 9 38 11 40
REMARK H PARENT 21 20 23 22 32 24 29 26 15 34 13 36 9 39 11 41
REMARK Flexibility Score: inf
ROOT
ATOM      1  O   UNL     1      -2.145   0.847  -0.406  1.00  0.00    -0.454 OA
ENDROOT
BRANCH   1   2
ATOM      2  C   UNL     1      -2.192   1.419  -1.692  1.00  0.00     0.214 A 
ATOM      3  C   UNL     1      -2.683   0.665  -2.773  1.00  0.00     0.180 A 
ATOM      4  O   UNL     1      -2.906   1.252  -3.940  1.00  0.00    -0.452 OA
ATOM      5  C   UNL     1      -1.787   2.748  -1.930  1.00  0.00     0.239 A 
ATOM      6  C   UNL     1      -2.627   2.525  -4.187  1.00  0.00     0.146 A 
ATOM      7  O   UNL     1      -1.246   3.401  -0.999  1.00  0.00    -0.285 OA
ATOM      8  C   UNL     1      -2.000   3.334  -3.203  1.00  0.00     0.111 A 
ATOM      9  C   UNL     1      -2.942   3.048  -5.444  1.00  0.00     0.094 A 
ATOM     10  C   UNL     1      -1.670   4.682  -3.542  1.00  0.00     0.134 A 
ATOM     11  C   UNL     1      -2.663   4.377  -5.745  1.00  0.00     0.123 A 
ATOM     12  C   UNL     1      -2.056   5.192  -4.789  1.00  0.00     0.093 A 
BRANCH   3  13
ATOM     13  C   UNL     1      -2.991  -0.775  -2.653  1.00  0.00     0.025 A 
ATOM     14  C   UNL     1      -4.140  -1.293  -3.269  1.00  0.00     0.016 A 
ATOM     15  C   UNL     1      -4.408  -2.664  -3.230  1.00  0.00     0.051 A 
ATOM     16  C   UNL     1      -3.526  -3.544  -2.601  1.00  0.00     0.157 A 
ATOM     17  C   UNL     1      -2.098  -1.659  -2.026  1.00  0.00     0.062 A 
ATOM     18  C   UNL     1      -2.356  -3.036  -1.989  1.00  0.00     0.158 A 
BRANCH  16  19
ATOM     19  O   UNL     1      -3.844  -4.906  -2.613  1.00  0.00    -0.504 OA
ATOM     20  H   UNL     1      -3.286  -5.613  -2.156  1.00  0.00     0.293 HD
ENDBRANCH  16  19
BRANCH  18  21
ATOM     21  O   UNL     1      -1.428  -3.854  -1.339  1.00  0.00    -0.504 OA
ATOM     22  H   UNL     1      -1.505  -4.859  -1.284  1.00  0.00     0.293 HD
ENDBRANCH  18  21
ENDBRANCH   3  13
BRANCH  10  23
ATOM     23  O   UNL     1      -0.936   5.539  -2.713  1.00  0.00    -0.507 OA
ATOM     24  H   UNL     1      -0.318   5.231  -1.970  1.00  0.00     0.293 HD
ENDBRANCH  10  23
BRANCH  11  25
ATOM     25  O   UNL     1      -2.976   4.869  -7.007  1.00  0.00    -0.508 OA
ATOM     26  H   UNL     1      -2.767   5.827  -7.272  1.00  0.00     0.293 HD
ENDBRANCH  11  25
ENDBRANCH   1   2
BRANCH   1  27
ATOM     27  C   UNL     1      -2.739   1.450   0.755  1.00  0.00     0.339 C 
ATOM     28  C   UNL     1      -4.270   1.281   0.761  1.00  0.00     0.214 C 
ATOM     29  O   UNL     1      -2.080   0.984   1.923  1.00  0.00    -0.332 OA
ATOM     30  C   UNL     1      -4.648  -0.193   0.884  1.00  0.00     0.180 C 
ATOM     31  C   UNL     1      -2.693  -0.078   2.651  1.00  0.00     0.179 C 
ATOM     32  C   UNL     1      -3.760  -0.948   1.907  1.00  0.00     0.177 C 
BRANCH  28  33
ATOM     33  O   UNL     1      -4.826   1.801  -0.420  1.00  0.00    -0.384 OA
ATOM     34  H   UNL     1      -4.702   2.786  -0.392  1.00  0.00     0.211 HD
ENDBRANCH  28  33
BRANCH  30  35
ATOM     35  O   UNL     1      -5.997  -0.303   1.258  1.00  0.00    -0.387 OA
ATOM     36  H   UNL     1      -6.538  -0.156   0.439  1.00  0.00     0.211 HD
ENDBRANCH  30  35
BRANCH  31  37
ATOM     37  C   UNL     1      -3.167   0.422   4.027  1.00  0.00     0.191 C 
BRANCH  37  38
ATOM     38  O   UNL     1      -4.213   1.348   3.923  1.00  0.00    -0.394 OA
ATOM     39  H   UNL     1      -3.792   2.241   3.825  1.00  0.00     0.210 HD
ENDBRANCH  37  38
ENDBRANCH  31  37
BRANCH  32  40
ATOM     40  O   UNL     1      -3.139  -2.045   1.286  1.00  0.00    -0.387 OA
ATOM     41  H   UNL     1      -2.459  -1.684   0.665  1.00  0.00     0.211 HD
ENDBRANCH  32  40
ENDBRANCH   1  27
TORSDOF 12
