REMARK SMILES CCCCCCCCCCCCCCCC(=O)OCC
REMARK SMILES IDX 10 1 9 2 8 3 7 4 6 5 5 6 4 7 3 8 2 9 1 10 11 11 12 12 13 13
REMARK SMILES IDX 14 14 15 15 16 16 17 17 18 18 19 19 20 20
REMARK H PARENT
REMARK Flexibility Score: inf
ROOT
ATOM      1  C   UNL     1       1.175   1.661   0.681  1.00  0.00     0.000 C 
ENDROOT
BRANCH   1   2
ATOM      2  C   UNL     1      -0.070   1.742   1.579  1.00  0.00     0.000 C 
BRANCH   2   3
ATOM      3  C   UNL     1      -1.332   1.197   0.894  1.00  0.00     0.000 C 
BRANCH   3   4
ATOM      4  C   UNL     1      -2.575   1.440   1.763  1.00  0.00    -0.000 C 
BRANCH   4   5
ATOM      5  C   UNL     1      -3.838   0.779   1.187  1.00  0.00    -0.000 C 
BRANCH   5   6
ATOM      6  C   UNL     1      -4.320   1.455  -0.109  1.00  0.00    -0.000 C 
BRANCH   6   7
ATOM      7  C   UNL     1      -5.710   0.967  -0.545  1.00  0.00    -0.000 C 
BRANCH   7   8
ATOM      8  C   UNL     1      -5.702  -0.500  -1.008  1.00  0.00    -0.000 C 
BRANCH   8   9
ATOM      9  C   UNL     1      -7.022  -0.913  -1.678  1.00  0.00    -0.003 C 
ATOM     10  C   UNL     1      -8.188  -0.981  -0.692  1.00  0.00     0.004 C 
ENDBRANCH   8   9
ENDBRANCH   7   8
ENDBRANCH   6   7
ENDBRANCH   5   6
ENDBRANCH   4   5
ENDBRANCH   3   4
ENDBRANCH   2   3
ENDBRANCH   1   2
BRANCH   1  11
ATOM     11  C   UNL     1       1.650   0.218   0.456  1.00  0.00     0.000 C 
BRANCH  11  12
ATOM     12  C   UNL     1       2.980   0.193  -0.313  1.00  0.00     0.000 C 
BRANCH  12  13
ATOM     13  C   UNL     1       3.406  -1.227  -0.725  1.00  0.00     0.001 C 
BRANCH  13  14
ATOM     14  C   UNL     1       3.647  -2.202   0.447  1.00  0.00     0.012 C 
BRANCH  14  15
ATOM     15  C   UNL     1       4.721  -1.746   1.448  1.00  0.00     0.123 C 
BRANCH  15  16
ATOM     16  C   UNL     1       6.049  -1.544   0.787  1.00  0.00     0.305 C 
ATOM     17  O   UNL     1       6.767  -2.543   0.507  1.00  0.00    -0.252 OA
BRANCH  16  18
ATOM     18  O   UNL     1       6.460  -0.249   0.454  1.00  0.00    -0.466 OA
BRANCH  18  19
ATOM     19  C   UNL     1       7.635   0.030  -0.303  1.00  0.00     0.229 C 
ATOM     20  C   UNL     1       7.407  -0.281  -1.778  1.00  0.00     0.049 C 
ENDBRANCH  18  19
ENDBRANCH  16  18
ENDBRANCH  15  16
ENDBRANCH  14  15
ENDBRANCH  13  14
ENDBRANCH  12  13
ENDBRANCH  11  12
ENDBRANCH   1  11
TORSDOF 16
