REMARK SMILES Oc1cc(O)c2cc(O)c(-c3ccc(O)c(O)c3)[o+]c2c1
REMARK SMILES IDX 10 1 19 2 20 3 21 4 2 5 3 6 4 7 6 8 7 9 8 10 11 11 12 12
REMARK SMILES IDX 13 13 14 14 18 15 16 16 15 17 17 19 9 21 1 23 5 25
REMARK H PARENT 15 18 17 20 9 22 1 24 5 26
REMARK Flexibility Score: inf
ROOT
ATOM      1  C   UNL     1      -0.303   0.040   0.353  1.00  0.00     0.402 A 
ATOM      2  O   UNL     1       0.500   0.069  -0.710  1.00  0.00    -0.202 OA
ATOM      3  C   UNL     1       1.826   0.059  -0.620  1.00  0.00     0.368 A 
ATOM      4  C   UNL     1       2.599   0.087  -1.785  1.00  0.00     0.162 A 
ATOM      5  C   UNL     1       3.997   0.074  -1.704  1.00  0.00     0.128 A 
ATOM      6  C   UNL     1       4.623   0.033  -0.454  1.00  0.00     0.093 A 
ATOM      7  C   UNL     1       3.861   0.007   0.724  1.00  0.00     0.136 A 
ATOM      8  C   UNL     1       2.456   0.020   0.643  1.00  0.00     0.125 A 
ATOM      9  C   UNL     1       1.645   0.003   1.784  1.00  0.00     0.078 A 
ATOM     10  C   UNL     1       0.254   0.024   1.648  1.00  0.00     0.223 A 
ENDROOT
BRANCH   1  11
ATOM     11  C   UNL     1      -1.766   0.045   0.126  1.00  0.00     0.087 A 
ATOM     12  C   UNL     1      -2.304   0.849  -0.891  1.00  0.00     0.022 A 
ATOM     13  C   UNL     1      -3.679   0.855  -1.137  1.00  0.00     0.051 A 
ATOM     14  C   UNL     1      -4.536   0.045  -0.381  1.00  0.00     0.157 A 
ATOM     15  C   UNL     1      -2.627  -0.782   0.870  1.00  0.00     0.068 A 
ATOM     16  C   UNL     1      -4.005  -0.781   0.624  1.00  0.00     0.158 A 
BRANCH  14  17
ATOM     17  O   UNL     1      -5.908   0.054  -0.626  1.00  0.00    -0.504 OA
ATOM     18  H   UNL     1      -6.314   0.639  -1.347  1.00  0.00     0.293 HD
ENDBRANCH  14  17
BRANCH  16  19
ATOM     19  O   UNL     1      -4.829  -1.610   1.385  1.00  0.00    -0.504 OA
ATOM     20  H   UNL     1      -5.831  -1.647   1.246  1.00  0.00     0.293 HD
ENDBRANCH  16  19
ENDBRANCH   1  11
BRANCH  10  21
ATOM     21  O   UNL     1      -0.558   0.058   2.781  1.00  0.00    -0.500 OA
ATOM     22  H   UNL     1      -0.167   0.055   3.716  1.00  0.00     0.294 HD
ENDBRANCH  10  21
BRANCH   5  23
ATOM     23  O   UNL     1       4.774   0.100  -2.860  1.00  0.00    -0.507 OA
ATOM     24  H   UNL     1       4.353   0.129  -3.781  1.00  0.00     0.293 HD
ENDBRANCH   5  23
BRANCH   7  25
ATOM     25  O   UNL     1       4.498  -0.032   1.965  1.00  0.00    -0.507 OA
ATOM     26  H   UNL     1       5.508  -0.041   2.044  1.00  0.00     0.293 HD
ENDBRANCH   7  25
TORSDOF 6
