REMARK SMILES Oc1cc(O)c2cc(O)c(-c3cc(O)c(O)c(O)c3)[o+]c2c1
REMARK SMILES IDX 10 1 20 2 21 3 22 4 2 5 3 6 4 7 6 8 7 9 8 10 11 11 12 12
REMARK SMILES IDX 13 13 19 14 15 15 17 16 14 17 16 19 18 21 9 23 1 25 5 27
REMARK H PARENT 14 18 16 20 18 22 9 24 1 26 5 28
REMARK Flexibility Score: inf
ROOT
ATOM      1  C   UNL     1      -0.244  -0.246  -0.216  1.00  0.00     0.402 A 
ATOM      2  O   UNL     1       0.640   0.675   0.160  1.00  0.00    -0.202 OA
ATOM      3  C   UNL     1       1.953   0.468   0.163  1.00  0.00     0.368 A 
ATOM      4  C   UNL     1       2.803   1.497   0.578  1.00  0.00     0.162 A 
ATOM      5  C   UNL     1       4.185   1.307   0.594  1.00  0.00     0.128 A 
ATOM      6  C   UNL     1       4.724   0.080   0.193  1.00  0.00     0.093 A 
ATOM      7  C   UNL     1       3.894  -0.967  -0.227  1.00  0.00     0.136 A 
ATOM      8  C   UNL     1       2.488  -0.777  -0.247  1.00  0.00     0.125 A 
ATOM      9  C   UNL     1       1.581  -1.764  -0.665  1.00  0.00     0.078 A 
ATOM     10  C   UNL     1       0.208  -1.502  -0.662  1.00  0.00     0.223 A 
ENDROOT
BRANCH   1  11
ATOM     11  C   UNL     1      -1.682   0.102  -0.165  1.00  0.00     0.091 A 
ATOM     12  C   UNL     1      -2.638  -0.806   0.321  1.00  0.00     0.068 A 
ATOM     13  C   UNL     1      -3.993  -0.450   0.382  1.00  0.00     0.162 A 
ATOM     14  C   UNL     1      -2.096   1.385  -0.557  1.00  0.00     0.068 A 
ATOM     15  C   UNL     1      -4.400   0.829  -0.034  1.00  0.00     0.200 A 
ATOM     16  C   UNL     1      -3.449   1.746  -0.500  1.00  0.00     0.162 A 
BRANCH  13  17
ATOM     17  O   UNL     1      -4.934  -1.360   0.860  1.00  0.00    -0.504 OA
ATOM     18  H   UNL     1      -4.668  -2.288   1.168  1.00  0.00     0.293 HD
ENDBRANCH  13  17
BRANCH  15  19
ATOM     19  O   UNL     1      -5.742   1.205   0.013  1.00  0.00    -0.502 OA
ATOM     20  H   UNL     1      -6.466   0.578   0.343  1.00  0.00     0.293 HD
ENDBRANCH  15  19
BRANCH  16  21
ATOM     21  O   UNL     1      -3.856   3.016  -0.904  1.00  0.00    -0.504 OA
ATOM     22  H   UNL     1      -3.193   3.702  -1.246  1.00  0.00     0.293 HD
ENDBRANCH  16  21
ENDBRANCH   1  11
BRANCH  10  23
ATOM     23  O   UNL     1      -0.690  -2.464  -1.124  1.00  0.00    -0.500 OA
ATOM     24  H   UNL     1      -0.377  -3.369  -1.456  1.00  0.00     0.294 HD
ENDBRANCH  10  23
BRANCH   5  25
ATOM     25  O   UNL     1       5.015   2.345   1.011  1.00  0.00    -0.507 OA
ATOM     26  H   UNL     1       6.023   2.240   1.035  1.00  0.00     0.293 HD
ENDBRANCH   5  25
BRANCH   7  27
ATOM     27  O   UNL     1       4.510  -2.163  -0.608  1.00  0.00    -0.507 OA
ATOM     28  H   UNL     1       4.014  -2.987  -0.916  1.00  0.00     0.293 HD
ENDBRANCH   7  27
TORSDOF 7
