REMARK SMILES COc1cc(-c2[o+]c3cc(O)cc(O)c3cc2O)cc(OC)c1O
REMARK SMILES IDX 6 1 7 2 8 3 9 4 10 5 12 6 13 7 15 8 16 9 17 10 5 11 3 12
REMARK SMILES IDX 4 13 23 14 20 15 19 16 2 17 1 18 24 19 21 21 22 22 18 23
REMARK SMILES IDX 11 25 14 27
REMARK H PARENT 24 20 18 24 11 26 14 28
REMARK Flexibility Score: inf
ROOT
ATOM      1  C   UNL     1       0.380  -0.300  -0.086  1.00  0.00     0.402 A 
ATOM      2  O   UNL     1       1.114   0.722   0.347  1.00  0.00    -0.202 OA
ATOM      3  C   UNL     1       2.439   0.680   0.441  1.00  0.00     0.368 A 
ATOM      4  C   UNL     1       3.122   1.805   0.910  1.00  0.00     0.162 A 
ATOM      5  C   UNL     1       4.513   1.790   1.022  1.00  0.00     0.128 A 
ATOM      6  C   UNL     1       5.228   0.641   0.665  1.00  0.00     0.093 A 
ATOM      7  C   UNL     1       4.566  -0.499   0.192  1.00  0.00     0.136 A 
ATOM      8  C   UNL     1       3.152  -0.486   0.074  1.00  0.00     0.125 A 
ATOM      9  C   UNL     1       2.407  -1.577  -0.402  1.00  0.00     0.078 A 
ATOM     10  C   UNL     1       1.015  -1.488  -0.495  1.00  0.00     0.223 A 
ENDROOT
BRANCH   1  11
ATOM     11  C   UNL     1      -1.091  -0.136  -0.137  1.00  0.00     0.091 A 
ATOM     12  C   UNL     1      -3.349  -0.977   0.261  1.00  0.00     0.165 A 
ATOM     13  C   UNL     1      -1.954  -1.155   0.297  1.00  0.00     0.069 A 
ATOM     14  C   UNL     1      -3.877   0.241  -0.202  1.00  0.00     0.200 A 
ATOM     15  C   UNL     1      -3.025   1.274  -0.616  1.00  0.00     0.165 A 
ATOM     16  C   UNL     1      -1.632   1.081  -0.575  1.00  0.00     0.069 A 
BRANCH  12  17
ATOM     17  O   UNL     1      -4.236  -1.984   0.678  1.00  0.00    -0.493 OA
ATOM     18  C   UNL     1      -3.838  -3.263   1.161  1.00  0.00     0.278 C 
ENDBRANCH  12  17
BRANCH  14  19
ATOM     19  O   UNL     1      -5.257   0.446  -0.253  1.00  0.00    -0.502 OA
ATOM     20  H   UNL     1      -5.921  -0.263   0.033  1.00  0.00     0.293 HD
ENDBRANCH  14  19
BRANCH  15  21
ATOM     21  O   UNL     1      -3.599   2.475  -1.061  1.00  0.00    -0.493 OA
ATOM     22  C   UNL     1      -2.859   3.607  -1.509  1.00  0.00     0.278 C 
ENDBRANCH  15  21
ENDBRANCH   1  11
BRANCH  10  23
ATOM     23  O   UNL     1       0.278  -2.553  -1.014  1.00  0.00    -0.500 OA
ATOM     24  H   UNL     1       0.724  -3.410  -1.320  1.00  0.00     0.294 HD
ENDBRANCH  10  23
BRANCH   5  25
ATOM     25  O   UNL     1       5.176   2.921   1.492  1.00  0.00    -0.507 OA
ATOM     26  H   UNL     1       6.185   2.943   1.586  1.00  0.00     0.293 HD
ENDBRANCH   5  25
BRANCH   7  27
ATOM     27  O   UNL     1       5.351  -1.607  -0.141  1.00  0.00    -0.507 OA
ATOM     28  H   UNL     1       4.985  -2.485  -0.479  1.00  0.00     0.293 HD
ENDBRANCH   7  27
TORSDOF 7
