REMARK SMILES CC1(C)O[C@]2(C)CC[C@H]1CC2
REMARK SMILES IDX 1 1 2 2 9 3 8 4 7 5 5 6 4 7 11 8 10 9 6 10 3 11
REMARK H PARENT
REMARK Flexibility Score: inf
ROOT
ATOM      1  C   UNL     1       1.939   1.050  -1.158  1.00  0.00     0.042 C 
ATOM      2  C   UNL     1       1.170   0.423   0.024  1.00  0.00     0.066 C 
ATOM      3  C   UNL     1       0.806  -1.081  -0.282  1.00  0.00     0.021 C 
ATOM      4  C   UNL     1      -0.145  -1.117  -1.502  1.00  0.00     0.009 C 
ATOM      5  C   UNL     1      -1.327  -0.148  -1.254  1.00  0.00     0.035 C 
ATOM      6  C   UNL     1      -1.214   0.466   0.172  1.00  0.00     0.066 C 
ATOM      7  O   UNL     1      -0.002   1.216   0.265  1.00  0.00    -0.369 OA
ATOM      8  C   UNL     1      -1.184  -0.685   1.217  1.00  0.00     0.035 C 
ATOM      9  C   UNL     1      -0.006  -1.641   0.911  1.00  0.00     0.009 C 
ATOM     10  C   UNL     1      -2.396   1.402   0.443  1.00  0.00     0.042 C 
ATOM     11  C   UNL     1       2.079   0.522   1.268  1.00  0.00     0.042 C 
ENDROOT
TORSDOF 0
