REMARK SMILES C=CC(=C)CCC=C(C)C
REMARK SMILES IDX 5 1 6 2 7 3 9 4 8 5 10 6 3 7 4 8 2 9 1 10
REMARK H PARENT
REMARK Flexibility Score: inf
ROOT
ATOM      1  C   UNL     1       0.596  -0.765   0.573  1.00  0.00     0.039 C 
ENDROOT
BRANCH   1   2
ATOM      2  C   UNL     1       0.310   0.655   0.072  1.00  0.00     0.032 C 
BRANCH   2   3
ATOM      3  C   UNL     1      -1.063   1.107   0.500  1.00  0.00    -0.028 C 
ATOM      4  C   UNL     1      -3.503   1.367   0.367  1.00  0.00     0.039 C 
ATOM      5  C   UNL     1      -2.194   0.892  -0.208  1.00  0.00    -0.080 C 
ATOM      6  C   UNL     1      -2.177   0.210  -1.557  1.00  0.00     0.039 C 
ENDBRANCH   2   3
ENDBRANCH   1   2
BRANCH   1   7
ATOM      7  C   UNL     1       1.971  -1.222   0.138  1.00  0.00    -0.055 C 
ATOM      8  C   UNL     1       2.101  -1.880  -1.019  1.00  0.00     0.012 C 
BRANCH   7   9
ATOM      9  C   UNL     1       3.193  -0.923   0.929  1.00  0.00    -0.005 C 
ATOM     10  C   UNL     1       3.209  -0.143   2.011  1.00  0.00     0.009 C 
ENDBRANCH   7   9
ENDBRANCH   1   7
TORSDOF 4
