REMARK SMILES CCCCCCCCCCCC(=O)[O-]
REMARK SMILES IDX 7 1 8 2 9 3 10 4 11 5 12 6 13 7 14 8 6 9 5 10 4 11 3 12 2 13
REMARK SMILES IDX 1 14
REMARK H PARENT
REMARK Flexibility Score: inf
ROOT
ATOM      1  C   UNL     1       0.629  -0.835   1.040  1.00  0.00     0.000 C 
ENDROOT
BRANCH   1   2
ATOM      2  C   UNL     1       2.111  -1.020   0.676  1.00  0.00     0.000 C 
BRANCH   2   3
ATOM      3  C   UNL     1       2.319  -1.297  -0.823  1.00  0.00     0.000 C 
BRANCH   3   4
ATOM      4  C   UNL     1       3.756  -1.744  -1.151  1.00  0.00     0.006 C 
BRANCH   4   5
ATOM      5  C   UNL     1       4.823  -0.667  -0.899  1.00  0.00     0.053 C 
BRANCH   5   6
ATOM      6  C   UNL     1       4.616   0.540  -1.762  1.00  0.00     0.041 C 
ATOM      7  O   UNL     1       4.103   1.584  -1.279  1.00  0.00    -0.550 OA
ATOM      8  O   UNL     1       4.958   0.500  -3.107  1.00  0.00    -0.550 OA
ENDBRANCH   5   6
ENDBRANCH   4   5
ENDBRANCH   3   4
ENDBRANCH   2   3
ENDBRANCH   1   2
BRANCH   1   9
ATOM      9  C   UNL     1       0.033   0.453   0.445  1.00  0.00     0.000 C 
BRANCH   9  10
ATOM     10  C   UNL     1      -1.354   0.786   1.019  1.00  0.00    -0.000 C 
BRANCH  10  11
ATOM     11  C   UNL     1      -2.450  -0.158   0.496  1.00  0.00    -0.000 C 
BRANCH  11  12
ATOM     12  C   UNL     1      -3.829   0.120   1.123  1.00  0.00    -0.000 C 
BRANCH  12  13
ATOM     13  C   UNL     1      -4.425   1.501   0.798  1.00  0.00    -0.003 C 
ATOM     14  C   UNL     1      -4.659   1.716  -0.696  1.00  0.00     0.004 C 
ENDBRANCH  12  13
ENDBRANCH  11  12
ENDBRANCH  10  11
ENDBRANCH   9  10
ENDBRANCH   1   9
TORSDOF 10
