REMARK SMILES CC1(C)[C@H]2CC[C@](C)(C2)[C@@H]1O
REMARK SMILES IDX 1 1 2 2 4 3 5 4 6 5 7 6 9 7 10 8 8 9 3 10 11 11
REMARK H PARENT 11 12
REMARK Flexibility Score: inf
ROOT
ATOM      1  C   UNL     1       2.287  -0.184   0.926  1.00  0.00     0.014 C 
ATOM      2  C   UNL     1       1.163   0.004  -0.127  1.00  0.00    -0.006 C 
ATOM      3  C   UNL     1       0.332   1.288   0.215  1.00  0.00    -0.002 C 
ATOM      4  C   UNL     1      -0.602   1.679  -0.950  1.00  0.00     0.005 C 
ATOM      5  C   UNL     1      -1.631   0.538  -0.959  1.00  0.00     0.010 C 
ATOM      6  C   UNL     1      -1.218  -0.303   0.272  1.00  0.00    -0.006 C 
ATOM      7  C   UNL     1      -0.689   0.761   1.208  1.00  0.00     0.013 C 
ATOM      8  C   UNL     1       0.062  -1.110  -0.076  1.00  0.00     0.126 C 
ATOM      9  C   UNL     1      -2.370  -1.135   0.851  1.00  0.00     0.014 C 
ATOM     10  C   UNL     1       1.839   0.057  -1.518  1.00  0.00     0.014 C 
ENDROOT
BRANCH   8  11
ATOM     11  O   UNL     1       0.324  -2.072   0.918  1.00  0.00    -0.392 OA
ATOM     12  H   UNL     1       0.958  -2.724   0.521  1.00  0.00     0.211 HD
ENDBRANCH   8  11
TORSDOF 1
