REMARK SMILES Oc1ccc(-c2[o+]c3cc(O)cc(O)c3cc2O)cc1
REMARK SMILES IDX 6 1 7 2 8 3 9 4 10 5 12 6 13 7 15 8 16 9 17 10 5 11 4 12
REMARK SMILES IDX 3 13 2 14 19 15 20 16 1 17 18 19 11 21 14 23
REMARK H PARENT 1 18 18 20 11 22 14 24
REMARK Flexibility Score: inf
ROOT
ATOM      1  C   UNL     1       0.487  -0.295  -0.168  1.00  0.00     0.401 A 
ATOM      2  O   UNL     1      -0.312   0.734   0.110  1.00  0.00    -0.202 OA
ATOM      3  C   UNL     1      -1.637   0.636   0.151  1.00  0.00     0.368 A 
ATOM      4  C   UNL     1      -2.406   1.764   0.456  1.00  0.00     0.162 A 
ATOM      5  C   UNL     1      -3.803   1.672   0.506  1.00  0.00     0.128 A 
ATOM      6  C   UNL     1      -4.432   0.449   0.249  1.00  0.00     0.093 A 
ATOM      7  C   UNL     1      -3.674  -0.690  -0.059  1.00  0.00     0.136 A 
ATOM      8  C   UNL     1      -2.270  -0.599  -0.109  1.00  0.00     0.125 A 
ATOM      9  C   UNL     1      -1.464  -1.700  -0.419  1.00  0.00     0.078 A 
ATOM     10  C   UNL     1      -0.075  -1.554  -0.462  1.00  0.00     0.223 A 
ENDROOT
BRANCH   1  11
ATOM     11  C   UNL     1       1.949  -0.064  -0.175  1.00  0.00     0.084 A 
ATOM     12  C   UNL     1       2.457   1.133  -0.709  1.00  0.00     0.022 A 
ATOM     13  C   UNL     1       3.833   1.382  -0.706  1.00  0.00     0.047 A 
ATOM     14  C   UNL     1       4.716   0.447  -0.158  1.00  0.00     0.115 A 
ATOM     15  C   UNL     1       2.841  -0.991   0.394  1.00  0.00     0.022 A 
ATOM     16  C   UNL     1       4.217  -0.739   0.396  1.00  0.00     0.047 A 
BRANCH  14  17
ATOM     17  O   UNL     1       6.085   0.708  -0.162  1.00  0.00    -0.508 OA
ATOM     18  H   UNL     1       6.750   0.052   0.229  1.00  0.00     0.293 HD
ENDBRANCH  14  17
ENDBRANCH   1  11
BRANCH  10  19
ATOM     19  O   UNL     1       0.731  -2.635  -0.820  1.00  0.00    -0.500 OA
ATOM     20  H   UNL     1       0.336  -3.542  -1.041  1.00  0.00     0.294 HD
ENDBRANCH  10  19
BRANCH   5  21
ATOM     21  O   UNL     1      -4.576   2.791   0.809  1.00  0.00    -0.507 OA
ATOM     22  H   UNL     1      -4.153   3.691   1.000  1.00  0.00     0.293 HD
ENDBRANCH   5  21
BRANCH   7  23
ATOM     23  O   UNL     1      -4.313  -1.904  -0.315  1.00  0.00    -0.507 OA
ATOM     24  H   UNL     1      -5.323  -1.989  -0.284  1.00  0.00     0.293 HD
ENDBRANCH   7  23
TORSDOF 5
