REMARK SMILES C=C1CC[C@@H]2C[C@H]1C2(C)C
REMARK SMILES IDX 9 1 8 2 5 3 4 4 3 5 2 6 1 7 7 8 6 9 10 10
REMARK H PARENT
REMARK Flexibility Score: inf
ROOT
ATOM      1  C   UNL     1      -2.539   0.121  -0.022  1.00  0.00     0.012 C 
ATOM      2  C   UNL     1      -1.029   0.127   0.320  1.00  0.00    -0.026 C 
ATOM      3  C   UNL     1      -0.461  -1.308   0.463  1.00  0.00    -0.004 C 
ATOM      4  C   UNL     1       0.921  -1.296   1.190  1.00  0.00     0.008 C 
ATOM      5  C   UNL     1       1.935  -0.276   0.545  1.00  0.00     0.031 C 
ATOM      6  C   UNL     1       1.280   0.592  -0.540  1.00  0.00    -0.074 C 
ATOM      7  C   UNL     1       1.935   1.610  -1.107  1.00  0.00     0.008 C 
ATOM      8  C   UNL     1      -0.147   0.236  -0.946  1.00  0.00     0.021 C 
ATOM      9  C   UNL     1      -0.162  -1.298  -1.046  1.00  0.00     0.012 C 
ATOM     10  C   UNL     1      -0.792   1.140   1.474  1.00  0.00     0.012 C 
ENDROOT
TORSDOF 0
