REMARK SMILES COc1cc(-c2[o+]c3cc(O)cc(O)c3cc2O)ccc1O
REMARK SMILES IDX 6 1 7 2 8 3 9 4 10 5 12 6 13 7 15 8 16 9 17 10 5 11 3 12
REMARK SMILES IDX 21 13 4 14 20 15 19 16 2 17 1 18 22 19 18 21 11 23 14 25
REMARK H PARENT 22 20 18 22 11 24 14 26
REMARK Flexibility Score: inf
ROOT
ATOM      1  C   UNL     1      -0.306  -0.423  -0.444  1.00  0.00     0.402 A 
ATOM      2  O   UNL     1      -0.562   0.556   0.420  1.00  0.00    -0.202 OA
ATOM      3  C   UNL     1      -1.666   0.609   1.158  1.00  0.00     0.368 A 
ATOM      4  C   UNL     1      -1.846   1.681   2.037  1.00  0.00     0.162 A 
ATOM      5  C   UNL     1      -2.996   1.763   2.822  1.00  0.00     0.128 A 
ATOM      6  C   UNL     1      -3.976   0.768   2.729  1.00  0.00     0.093 A 
ATOM      7  C   UNL     1      -3.819  -0.316   1.857  1.00  0.00     0.136 A 
ATOM      8  C   UNL     1      -2.649  -0.405   1.058  1.00  0.00     0.125 A 
ATOM      9  C   UNL     1      -2.401  -1.461   0.167  1.00  0.00     0.078 A 
ATOM     10  C   UNL     1      -1.221  -1.482  -0.584  1.00  0.00     0.223 A 
ENDROOT
BRANCH   1  11
ATOM     11  C   UNL     1       0.956  -0.364  -1.216  1.00  0.00     0.087 A 
ATOM     12  C   UNL     1       3.344   0.157  -1.300  1.00  0.00     0.161 A 
ATOM     13  C   UNL     1       3.363  -0.180  -2.660  1.00  0.00     0.157 A 
ATOM     14  C   UNL     1       2.133   0.070  -0.584  1.00  0.00     0.068 A 
ATOM     15  C   UNL     1       2.187  -0.592  -3.299  1.00  0.00     0.051 A 
ATOM     16  C   UNL     1       0.990  -0.678  -2.585  1.00  0.00     0.022 A 
BRANCH  12  17
ATOM     17  O   UNL     1       4.541   0.574  -0.697  1.00  0.00    -0.493 OA
ATOM     18  C   UNL     1       4.668   0.947   0.671  1.00  0.00     0.278 C 
ENDBRANCH  12  17
BRANCH  13  19
ATOM     19  O   UNL     1       4.557  -0.097  -3.374  1.00  0.00    -0.504 OA
ATOM     20  H   UNL     1       4.604  -0.332  -4.359  1.00  0.00     0.293 HD
ENDBRANCH  13  19
ENDBRANCH   1  11
BRANCH  10  21
ATOM     21  O   UNL     1      -0.952  -2.556  -1.433  1.00  0.00    -0.500 OA
ATOM     22  H   UNL     1      -1.598  -3.329  -1.535  1.00  0.00     0.294 HD
ENDBRANCH  10  21
BRANCH   5  23
ATOM     23  O   UNL     1      -3.158   2.839   3.692  1.00  0.00    -0.507 OA
ATOM     24  H   UNL     1      -3.981   2.930   4.276  1.00  0.00     0.293 HD
ENDBRANCH   5  23
BRANCH   7  25
ATOM     25  O   UNL     1      -4.843  -1.266   1.820  1.00  0.00    -0.507 OA
ATOM     26  H   UNL     1      -4.845  -2.080   1.223  1.00  0.00     0.293 HD
ENDBRANCH   7  25
TORSDOF 6
