REMARK SMILES CC1=CC[C@H](C(C)C)C=C1
REMARK SMILES IDX 1 1 2 2 3 3 4 4 5 5 9 6 10 7 6 8 7 9 8 10
REMARK H PARENT
REMARK Flexibility Score: inf
ROOT
ATOM      1  C   UNL     1       3.856   0.336   0.521  1.00  0.00     0.044 C 
ATOM      2  C   UNL     1       2.391   0.228   0.216  1.00  0.00    -0.055 C 
ATOM      3  C   UNL     1       1.868  -0.936  -0.198  1.00  0.00    -0.023 C 
ATOM      4  C   UNL     1       0.430  -1.020  -0.640  1.00  0.00     0.035 C 
ATOM      5  C   UNL     1      -0.466  -0.043   0.166  1.00  0.00     0.018 C 
ATOM      6  C   UNL     1       0.202   1.321   0.208  1.00  0.00    -0.023 C 
ATOM      7  C   UNL     1       1.532   1.429   0.291  1.00  0.00    -0.001 C 
ENDROOT
BRANCH   5   8
ATOM      8  C   UNL     1      -1.922   0.051  -0.391  1.00  0.00    -0.010 C 
ATOM      9  C   UNL     1      -2.848   0.791   0.593  1.00  0.00     0.008 C 
ATOM     10  C   UNL     1      -2.530  -1.331  -0.690  1.00  0.00     0.008 C 
ENDBRANCH   5   8
TORSDOF 1
