REMARK SMILES CCCCCCCCC=CCCCCCCCC(=O)[O-]
REMARK SMILES IDX 10 1 9 2 11 3 12 4 13 5 14 6 15 7 16 8 17 9 18 10 19 11
REMARK SMILES IDX 20 12 8 13 7 14 6 15 5 16 4 17 3 18 2 19 1 20
REMARK H PARENT
REMARK Flexibility Score: inf
ROOT
ATOM      1  C   UNL     1      -0.281  -3.001   1.520  1.00  0.00    -0.031 C 
ATOM      2  C   UNL     1       0.963  -2.490   1.516  1.00  0.00    -0.031 C 
ENDROOT
BRANCH   1   3
ATOM      3  C   UNL     1      -1.441  -2.442   0.736  1.00  0.00     0.027 C 
BRANCH   3   4
ATOM      4  C   UNL     1      -2.139  -1.335   1.534  1.00  0.00     0.004 C 
BRANCH   4   5
ATOM      5  C   UNL     1      -3.398  -0.836   0.812  1.00  0.00     0.000 C 
BRANCH   5   6
ATOM      6  C   UNL     1      -3.998   0.373   1.538  1.00  0.00     0.000 C 
BRANCH   6   7
ATOM      7  C   UNL     1      -5.356   0.767   0.944  1.00  0.00     0.000 C 
BRANCH   7   8
ATOM      8  C   UNL     1      -5.833   2.111   1.517  1.00  0.00     0.006 C 
BRANCH   8   9
ATOM      9  C   UNL     1      -7.277   2.441   1.113  1.00  0.00     0.053 C 
BRANCH   9  10
ATOM     10  C   UNL     1      -7.434   2.608  -0.370  1.00  0.00     0.041 C 
ATOM     11  O   UNL     1      -6.763   3.475  -0.990  1.00  0.00    -0.550 OA
ATOM     12  O   UNL     1      -8.337   1.811  -1.064  1.00  0.00    -0.550 OA
ENDBRANCH   9  10
ENDBRANCH   8   9
ENDBRANCH   7   8
ENDBRANCH   6   7
ENDBRANCH   5   6
ENDBRANCH   4   5
ENDBRANCH   3   4
ENDBRANCH   1   3
BRANCH   2  13
ATOM     13  C   UNL     1       1.420  -1.351   0.643  1.00  0.00     0.027 C 
BRANCH  13  14
ATOM     14  C   UNL     1       1.933  -1.877  -0.704  1.00  0.00     0.004 C 
BRANCH  14  15
ATOM     15  C   UNL     1       2.291  -0.751  -1.692  1.00  0.00     0.000 C 
BRANCH  15  16
ATOM     16  C   UNL     1       3.490   0.122  -1.273  1.00  0.00     0.000 C 
BRANCH  16  17
ATOM     17  C   UNL     1       4.835  -0.613  -1.401  1.00  0.00    -0.000 C 
BRANCH  17  18
ATOM     18  C   UNL     1       6.011   0.206  -0.846  1.00  0.00    -0.000 C 
BRANCH  18  19
ATOM     19  C   UNL     1       6.337   1.439  -1.705  1.00  0.00    -0.003 C 
ATOM     20  C   UNL     1       7.614   2.123  -1.222  1.00  0.00     0.004 C 
ENDBRANCH  18  19
ENDBRANCH  17  18
ENDBRANCH  16  17
ENDBRANCH  15  16
ENDBRANCH  14  15
ENDBRANCH  13  14
ENDBRANCH   2  13
TORSDOF 15
