REMARK SMILES COc1cc2ccc(=O)oc2cc1O
REMARK SMILES IDX 3 1 13 2 12 3 11 4 5 5 4 6 6 7 7 8 8 9 9 10 10 11 2 12 1 13
REMARK SMILES IDX 14 14
REMARK H PARENT 14 15
REMARK Flexibility Score: inf
ROOT
ATOM      1  C   UNL     1      -1.420  -0.287   0.006  1.00  0.00     0.161 A 
ATOM      2  C   UNL     1      -1.056  -1.589   0.400  1.00  0.00     0.161 A 
ATOM      3  C   UNL     1       0.289  -1.912   0.612  1.00  0.00     0.098 A 
ATOM      4  C   UNL     1       1.284  -0.948   0.436  1.00  0.00     0.142 A 
ATOM      5  C   UNL     1       0.930   0.359   0.042  1.00  0.00     0.022 A 
ATOM      6  C   UNL     1      -0.415   0.687  -0.171  1.00  0.00     0.062 A 
ATOM      7  C   UNL     1       1.949   1.303  -0.126  1.00  0.00     0.019 A 
ATOM      8  C   UNL     1       3.273   0.929   0.099  1.00  0.00     0.094 A 
ATOM      9  C   UNL     1       3.549  -0.386   0.488  1.00  0.00     0.336 A 
ATOM     10  O   UNL     1       4.738  -0.744   0.696  1.00  0.00    -0.246 OA
ATOM     11  O   UNL     1       2.561  -1.264   0.641  1.00  0.00    -0.423 OA
ENDROOT
BRANCH   1  12
ATOM     12  O   UNL     1      -2.778   0.003  -0.198  1.00  0.00    -0.493 OA
ATOM     13  C   UNL     1      -3.283   1.274  -0.596  1.00  0.00     0.278 C 
ENDBRANCH   1  12
BRANCH   2  14
ATOM     14  O   UNL     1      -2.020  -2.580   0.586  1.00  0.00    -0.504 OA
ATOM     15  H   UNL     1      -3.008  -2.405   0.447  1.00  0.00     0.293 HD
ENDBRANCH   2  14
TORSDOF 2
