REMARK SMILES C[C@@H]1O[C@@H](OC[C@@H]2O[C@H](Oc3c(-c4ccc(O)c(O)c4)oc4cc(O)cc(O)c4c3=O)[C@H](O)[C@H](O)[C@@H]2O)[C@H](O)[C@H](O)[C@H]1O
REMARK SMILES IDX 7 1 36 2 34 3 32 4 9 5 8 6 6 7 5 8 4 9 1 10 2 11 42 12 3 13
REMARK SMILES IDX 40 14 38 15 43 16 41 18 39 20 37 22 35 24 10 26 11 27 12 28
REMARK SMILES IDX 30 29 21 30 29 31 31 32 22 33 27 34 23 35 26 36 24 37 13 38
REMARK SMILES IDX 20 39 14 40 18 41 15 42 16 43 19 44 17 46 28 48 25 50 33 52
REMARK H PARENT 43 17 41 19 39 21 37 23 35 25 19 45 17 47 28 49 25 51 33 53
REMARK Flexibility Score: inf
ROOT
ATOM      1  C   UNL     1      -2.548  -1.509   1.094  1.00  0.00     0.180 C 
ATOM      2  C   UNL     1      -3.881  -2.084   1.593  1.00  0.00     0.177 C 
ATOM      3  C   UNL     1      -4.572  -2.984   0.555  1.00  0.00     0.180 C 
ATOM      4  C   UNL     1      -3.571  -3.663  -0.424  1.00  0.00     0.214 C 
ATOM      5  C   UNL     1      -2.083  -3.646   0.042  1.00  0.00     0.339 C 
ATOM      6  O   UNL     1      -1.603  -2.511   0.769  1.00  0.00    -0.332 OA
ENDROOT
BRANCH   1   7
ATOM      7  C   UNL     1      -2.637  -0.409   0.001  1.00  0.00     0.198 C 
BRANCH   7   8
ATOM      8  O   UNL     1      -1.796  -0.761  -1.078  1.00  0.00    -0.347 OA
BRANCH   8   9
ATOM      9  C   UNL     1      -1.712   0.234  -2.094  1.00  0.00     0.281 C 
ATOM     10  C   UNL     1      -1.635   3.780  -1.014  1.00  0.00     0.041 C 
ATOM     11  C   UNL     1      -2.285   2.488  -1.523  1.00  0.00     0.150 C 
ATOM     12  C   UNL     1      -3.047   2.736  -2.878  1.00  0.00     0.174 C 
ATOM     13  O   UNL     1      -1.264   1.503  -1.608  1.00  0.00    -0.344 OA
ATOM     14  C   UNL     1      -2.913   1.556  -3.841  1.00  0.00     0.179 C 
ATOM     15  C   UNL     1      -2.941   0.253  -3.040  1.00  0.00     0.202 C 
BRANCH  12  16
ATOM     16  O   UNL     1      -4.419   2.950  -2.599  1.00  0.00    -0.388 OA
ATOM     17  H   UNL     1      -4.488   3.842  -2.162  1.00  0.00     0.211 HD
ENDBRANCH  12  16
BRANCH  14  18
ATOM     18  O   UNL     1      -1.718   1.684  -4.564  1.00  0.00    -0.387 OA
ATOM     19  H   UNL     1      -1.805   1.095  -5.372  1.00  0.00     0.211 HD
ENDBRANCH  14  18
BRANCH  15  20
ATOM     20  O   UNL     1      -2.893  -0.854  -3.903  1.00  0.00    -0.385 OA
ATOM     21  H   UNL     1      -3.820  -1.029  -4.179  1.00  0.00     0.211 HD
ENDBRANCH  15  20
ENDBRANCH   8   9
ENDBRANCH   7   8
ENDBRANCH   1   7
BRANCH   2  22
ATOM     22  O   UNL     1      -4.738  -1.036   2.010  1.00  0.00    -0.387 OA
ATOM     23  H   UNL     1      -5.432  -1.456   2.583  1.00  0.00     0.211 HD
ENDBRANCH   2  22
BRANCH   3  24
ATOM     24  O   UNL     1      -5.575  -2.292  -0.142  1.00  0.00    -0.387 OA
ATOM     25  H   UNL     1      -6.044  -2.973  -0.682  1.00  0.00     0.211 HD
ENDBRANCH   3  24
BRANCH   5  26
ATOM     26  O   UNL     1      -1.242  -3.833  -1.097  1.00  0.00    -0.454 OA
BRANCH  26  27
ATOM     27  C   UNL     1      -0.556  -5.027  -1.315  1.00  0.00     0.214 A 
ATOM     28  C   UNL     1       0.666  -5.288  -0.675  1.00  0.00     0.180 A 
ATOM     29  C   UNL     1      -1.093  -5.997  -2.172  1.00  0.00     0.239 A 
ATOM     30  O   UNL     1       1.263  -6.465  -0.863  1.00  0.00    -0.452 OA
ATOM     31  C   UNL     1      -0.418  -7.217  -2.361  1.00  0.00     0.111 A 
ATOM     32  O   UNL     1      -2.173  -5.755  -2.770  1.00  0.00    -0.285 OA
ATOM     33  C   UNL     1       0.791  -7.417  -1.647  1.00  0.00     0.146 A 
ATOM     34  C   UNL     1      -0.881  -8.226  -3.234  1.00  0.00     0.134 A 
ATOM     35  C   UNL     1       1.502  -8.620  -1.764  1.00  0.00     0.094 A 
ATOM     36  C   UNL     1      -0.156  -9.429  -3.353  1.00  0.00     0.093 A 
ATOM     37  C   UNL     1       1.023  -9.627  -2.609  1.00  0.00     0.123 A 
BRANCH  28  38
ATOM     38  C   UNL     1       1.309  -4.297   0.218  1.00  0.00     0.025 A 
ATOM     39  C   UNL     1       1.894  -4.718   1.424  1.00  0.00     0.062 A 
ATOM     40  C   UNL     1       1.371  -2.938  -0.139  1.00  0.00     0.016 A 
ATOM     41  C   UNL     1       2.510  -3.787   2.278  1.00  0.00     0.158 A 
ATOM     42  C   UNL     1       1.950  -2.010   0.726  1.00  0.00     0.051 A 
ATOM     43  C   UNL     1       2.509  -2.423   1.938  1.00  0.00     0.157 A 
BRANCH  41  44
ATOM     44  O   UNL     1       3.096  -4.208   3.467  1.00  0.00    -0.504 OA
ATOM     45  H   UNL     1       3.102  -5.181   3.738  1.00  0.00     0.293 HD
ENDBRANCH  41  44
BRANCH  43  46
ATOM     46  O   UNL     1       3.089  -1.466   2.774  1.00  0.00    -0.504 OA
ATOM     47  H   UNL     1       3.510  -1.720   3.655  1.00  0.00     0.293 HD
ENDBRANCH  43  46
ENDBRANCH  28  38
BRANCH  34  48
ATOM     48  O   UNL     1      -2.047  -8.045  -3.977  1.00  0.00    -0.507 OA
ATOM     49  H   UNL     1      -2.389  -8.756  -4.612  1.00  0.00     0.293 HD
ENDBRANCH  34  48
BRANCH  37  50
ATOM     50  O   UNL     1       1.713 -10.823  -2.697  1.00  0.00    -0.508 OA
ATOM     51  H   UNL     1       1.427 -11.568  -3.311  1.00  0.00     0.293 HD
ENDBRANCH  37  50
ENDBRANCH  26  27
ENDBRANCH   5  26
BRANCH   4  52
ATOM     52  O   UNL     1      -3.705  -3.210  -1.754  1.00  0.00    -0.384 OA
ATOM     53  H   UNL     1      -3.602  -2.229  -1.738  1.00  0.00     0.211 HD
ENDBRANCH   4  52
TORSDOF 16
