REMARK SMILES O=c1c(O)c(-c2ccc(O)cc2)oc2cc(O)cc(O)c12
REMARK SMILES IDX 5 1 3 2 2 3 1 4 21 5 19 6 18 7 16 8 15 9 14 10 13 11 6 12
REMARK SMILES IDX 7 13 8 14 9 15 12 16 11 17 10 18 4 20 20 22 17 24
REMARK H PARENT 10 19 4 21 20 23 17 25
REMARK Flexibility Score: inf
ROOT
ATOM      1  C   UNL     1       0.468  -0.327  -0.235  1.00  0.00     0.180 A 
ATOM      2  C   UNL     1      -0.027  -1.642  -0.256  1.00  0.00     0.208 A 
ATOM      3  C   UNL     1      -1.414  -1.849  -0.184  1.00  0.00     0.238 A 
ATOM      4  O   UNL     1      -1.854  -3.026  -0.257  1.00  0.00    -0.285 OA
ATOM      5  C   UNL     1      -2.287  -0.740  -0.077  1.00  0.00     0.111 A 
ATOM      6  C   UNL     1      -3.706  -0.835   0.042  1.00  0.00     0.134 A 
ATOM      7  C   UNL     1      -4.481   0.331   0.010  1.00  0.00     0.093 A 
ATOM      8  C   UNL     1      -3.886   1.589  -0.071  1.00  0.00     0.123 A 
ATOM      9  C   UNL     1      -2.496   1.696  -0.128  1.00  0.00     0.094 A 
ATOM     10  C   UNL     1      -1.698   0.550  -0.134  1.00  0.00     0.146 A 
ATOM     11  O   UNL     1      -0.380   0.695  -0.201  1.00  0.00    -0.452 OA
ENDROOT
BRANCH   1  12
ATOM     12  C   UNL     1       1.918  -0.029  -0.282  1.00  0.00     0.021 A 
ATOM     13  C   UNL     1       2.841  -0.758   0.491  1.00  0.00     0.016 A 
ATOM     14  C   UNL     1       4.202  -0.443   0.449  1.00  0.00     0.047 A 
ATOM     15  C   UNL     1       4.657   0.609  -0.352  1.00  0.00     0.115 A 
ATOM     16  C   UNL     1       2.380   1.040  -1.067  1.00  0.00     0.016 A 
ATOM     17  C   UNL     1       3.742   1.352  -1.108  1.00  0.00     0.047 A 
BRANCH  15  18
ATOM     18  O   UNL     1       6.017   0.910  -0.384  1.00  0.00    -0.508 OA
ATOM     19  H   UNL     1       6.378   1.667  -0.953  1.00  0.00     0.293 HD
ENDBRANCH  15  18
ENDBRANCH   1  12
BRANCH   2  20
ATOM     20  O   UNL     1       0.851  -2.722  -0.384  1.00  0.00    -0.502 OA
ATOM     21  H   UNL     1       0.532  -3.683  -0.410  1.00  0.00     0.293 HD
ENDBRANCH   2  20
BRANCH   6  22
ATOM     22  O   UNL     1      -4.396  -2.038   0.221  1.00  0.00    -0.507 OA
ATOM     23  H   UNL     1      -3.979  -2.897   0.545  1.00  0.00     0.293 HD
ENDBRANCH   6  22
BRANCH   8  24
ATOM     24  O   UNL     1      -4.688   2.729  -0.085  1.00  0.00    -0.508 OA
ATOM     25  H   UNL     1      -4.287   3.658  -0.140  1.00  0.00     0.293 HD
ENDBRANCH   8  24
TORSDOF 5
