REMARK SMILES O=c1cc(-c2ccc(O)c(O)c2)oc2cc(O)cc(O)c12
REMARK SMILES IDX 4 1 3 2 2 3 1 4 21 5 19 6 18 7 16 8 15 9 14 10 13 11 5 12
REMARK SMILES IDX 6 13 7 14 8 15 12 16 10 17 9 18 11 20 20 22 17 24
REMARK H PARENT 9 19 11 21 20 23 17 25
REMARK Flexibility Score: inf
ROOT
ATOM      1  C   UNL     1       0.343  -0.454  -0.134  1.00  0.00     0.138 A 
ATOM      2  C   UNL     1      -0.192  -1.693  -0.512  1.00  0.00     0.100 A 
ATOM      3  C   UNL     1      -1.572  -1.831  -0.667  1.00  0.00     0.197 A 
ATOM      4  O   UNL     1      -2.015  -2.941  -1.062  1.00  0.00    -0.289 OA
ATOM      5  C   UNL     1      -2.423  -0.731  -0.407  1.00  0.00     0.107 A 
ATOM      6  C   UNL     1      -3.848  -0.764  -0.499  1.00  0.00     0.134 A 
ATOM      7  C   UNL     1      -4.579   0.416  -0.314  1.00  0.00     0.093 A 
ATOM      8  C   UNL     1      -3.942   1.615   0.017  1.00  0.00     0.123 A 
ATOM      9  C   UNL     1      -2.557   1.646   0.159  1.00  0.00     0.094 A 
ATOM     10  C   UNL     1      -1.796   0.494  -0.054  1.00  0.00     0.146 A 
ATOM     11  O   UNL     1      -0.476   0.573   0.074  1.00  0.00    -0.456 OA
ENDROOT
BRANCH   1  12
ATOM     12  C   UNL     1       1.802  -0.251   0.050  1.00  0.00     0.021 A 
ATOM     13  C   UNL     1       2.751  -1.013  -0.659  1.00  0.00     0.016 A 
ATOM     14  C   UNL     1       4.118  -0.792  -0.473  1.00  0.00     0.051 A 
ATOM     15  C   UNL     1       4.562   0.196   0.415  1.00  0.00     0.157 A 
ATOM     16  C   UNL     1       2.256   0.749   0.929  1.00  0.00     0.062 A 
ATOM     17  C   UNL     1       3.625   0.971   1.117  1.00  0.00     0.158 A 
BRANCH  15  18
ATOM     18  O   UNL     1       5.927   0.411   0.598  1.00  0.00    -0.504 OA
ATOM     19  H   UNL     1       6.622  -0.134   0.102  1.00  0.00     0.293 HD
ENDBRANCH  15  18
BRANCH  17  20
ATOM     20  O   UNL     1       4.034   1.965   2.006  1.00  0.00    -0.504 OA
ATOM     21  H   UNL     1       5.012   2.164   2.177  1.00  0.00     0.293 HD
ENDBRANCH  17  20
ENDBRANCH   1  12
BRANCH   6  22
ATOM     22  O   UNL     1      -4.590  -1.923  -0.746  1.00  0.00    -0.507 OA
ATOM     23  H   UNL     1      -4.244  -2.865  -0.652  1.00  0.00     0.293 HD
ENDBRANCH   6  22
BRANCH   8  24
ATOM     24  O   UNL     1      -4.679   2.780   0.215  1.00  0.00    -0.508 OA
ATOM     25  H   UNL     1      -5.688   2.791   0.122  1.00  0.00     0.293 HD
ENDBRANCH   8  24
TORSDOF 5
