REMARK SMILES O=c1cc(-c2ccc(O)c(O)c2)oc2cc(O[C@H]3O[C@H](CO)[C@H](O)[C@@H](O)[C@H]3O)cc(O)c12
REMARK SMILES IDX 17 1 16 2 4 3 3 4 13 5 2 6 14 7 1 8 32 9 15 10 30 11 29 12
REMARK SMILES IDX 5 13 6 14 7 15 8 16 12 17 10 18 9 19 11 21 31 23 18 25 27 26
REMARK SMILES IDX 19 27 25 28 20 29 23 30 28 31 26 33 21 35 22 36 24 38
REMARK H PARENT 9 20 11 22 31 24 28 32 26 34 22 37 24 39
REMARK Flexibility Score: inf
ROOT
ATOM      1  O   UNL     1      -3.190   0.764   1.515  1.00  0.00    -0.462 OA
ENDROOT
BRANCH   1   2
ATOM      2  C   UNL     1      -1.901   1.205   1.858  1.00  0.00     0.130 A 
ATOM      3  C   UNL     1       0.711   3.746   4.938  1.00  0.00     0.138 A 
ATOM      4  C   UNL     1       1.905   3.468   4.252  1.00  0.00     0.100 A 
ATOM      5  O   UNL     1      -0.437   3.252   4.478  1.00  0.00    -0.456 OA
ATOM      6  C   UNL     1       1.870   2.668   3.110  1.00  0.00     0.197 A 
ATOM      7  C   UNL     1      -0.521   2.485   3.395  1.00  0.00     0.146 A 
ATOM      8  O   UNL     1       2.947   2.425   2.500  1.00  0.00    -0.289 OA
ATOM      9  C   UNL     1       0.638   2.153   2.658  1.00  0.00     0.107 A 
ATOM     10  C   UNL     1      -1.771   2.010   2.992  1.00  0.00     0.094 A 
ATOM     11  C   UNL     1       0.515   1.334   1.513  1.00  0.00     0.134 A 
ATOM     12  C   UNL     1      -0.749   0.865   1.123  1.00  0.00     0.093 A 
BRANCH   3  13
ATOM     13  C   UNL     1       0.686   4.591   6.157  1.00  0.00     0.021 A 
ATOM     14  C   UNL     1      -0.482   5.303   6.481  1.00  0.00     0.016 A 
ATOM     15  C   UNL     1      -0.534   6.100   7.627  1.00  0.00     0.051 A 
ATOM     16  C   UNL     1       0.573   6.194   8.475  1.00  0.00     0.157 A 
ATOM     17  C   UNL     1       1.795   4.678   7.022  1.00  0.00     0.062 A 
ATOM     18  C   UNL     1       1.743   5.477   8.174  1.00  0.00     0.158 A 
BRANCH  16  19
ATOM     19  O   UNL     1       0.492   6.999   9.610  1.00  0.00    -0.504 OA
ATOM     20  H   UNL     1       1.267   7.099  10.255  1.00  0.00     0.293 HD
ENDBRANCH  16  19
BRANCH  18  21
ATOM     21  O   UNL     1       2.847   5.557   9.021  1.00  0.00    -0.504 OA
ATOM     22  H   UNL     1       3.703   5.050   8.828  1.00  0.00     0.293 HD
ENDBRANCH  18  21
ENDBRANCH   3  13
BRANCH  11  23
ATOM     23  O   UNL     1       1.636   0.982   0.759  1.00  0.00    -0.507 OA
ATOM     24  H   UNL     1       1.564   0.397  -0.064  1.00  0.00     0.293 HD
ENDBRANCH  11  23
ENDBRANCH   1   2
BRANCH   1  25
ATOM     25  C   UNL     1      -3.570   0.065   0.321  1.00  0.00     0.339 C 
ATOM     26  C   UNL     1      -3.718   1.009  -0.898  1.00  0.00     0.214 C 
ATOM     27  O   UNL     1      -4.764  -0.669   0.542  1.00  0.00    -0.332 OA
ATOM     28  C   UNL     1      -4.976   1.902  -0.800  1.00  0.00     0.180 C 
ATOM     29  C   UNL     1      -5.855   0.184   0.849  1.00  0.00     0.179 C 
ATOM     30  C   UNL     1      -6.209   1.088  -0.358  1.00  0.00     0.177 C 
BRANCH  26  31
ATOM     31  O   UNL     1      -2.568   1.798  -1.056  1.00  0.00    -0.384 OA
ATOM     32  H   UNL     1      -2.597   2.168  -1.976  1.00  0.00     0.211 HD
ENDBRANCH  26  31
BRANCH  28  33
ATOM     33  O   UNL     1      -4.766   3.025   0.024  1.00  0.00    -0.387 OA
ATOM     34  H   UNL     1      -4.619   2.713   0.952  1.00  0.00     0.211 HD
ENDBRANCH  28  33
BRANCH  29  35
ATOM     35  C   UNL     1      -7.051  -0.669   1.297  1.00  0.00     0.191 C 
BRANCH  35  36
ATOM     36  O   UNL     1      -7.309  -1.689   0.370  1.00  0.00    -0.394 OA
ATOM     37  H   UNL     1      -8.095  -2.184   0.717  1.00  0.00     0.210 HD
ENDBRANCH  35  36
ENDBRANCH  29  35
BRANCH  30  38
ATOM     38  O   UNL     1      -6.641   0.304  -1.444  1.00  0.00    -0.387 OA
ATOM     39  H   UNL     1      -7.634   0.301  -1.429  1.00  0.00     0.211 HD
ENDBRANCH  30  38
ENDBRANCH   1  25
TORSDOF 11
