REMARK SMILES O=c1c(O)c(-c2ccc(O)c(O)c2)oc2cc(O)cc(O)c12
REMARK SMILES IDX 5 1 3 2 2 3 1 4 22 5 20 6 19 7 17 8 16 9 15 10 14 11 6 12
REMARK SMILES IDX 7 13 8 14 9 15 13 16 11 17 10 18 12 20 4 22 21 24 18 26
REMARK H PARENT 10 19 12 21 4 23 21 25 18 27
REMARK Flexibility Score: inf
ROOT
ATOM      1  C   UNL     1       0.281  -0.332  -0.258  1.00  0.00     0.180 A 
ATOM      2  C   UNL     1      -0.401  -1.095  -1.221  1.00  0.00     0.208 A 
ATOM      3  C   UNL     1      -1.804  -1.045  -1.261  1.00  0.00     0.238 A 
ATOM      4  O   UNL     1      -2.406  -1.688  -2.160  1.00  0.00    -0.285 OA
ATOM      5  C   UNL     1      -2.507  -0.246  -0.328  1.00  0.00     0.111 A 
ATOM      6  C   UNL     1      -3.929  -0.152  -0.251  1.00  0.00     0.134 A 
ATOM      7  C   UNL     1      -4.514   0.771   0.626  1.00  0.00     0.093 A 
ATOM      8  C   UNL     1      -3.729   1.555   1.475  1.00  0.00     0.123 A 
ATOM      9  C   UNL     1      -2.342   1.427   1.449  1.00  0.00     0.094 A 
ATOM     10  C   UNL     1      -1.729   0.542   0.560  1.00  0.00     0.146 A 
ATOM     11  O   UNL     1      -0.404   0.459   0.560  1.00  0.00    -0.452 OA
ENDROOT
BRANCH   1  12
ATOM     12  C   UNL     1       1.757  -0.352  -0.138  1.00  0.00     0.025 A 
ATOM     13  C   UNL     1       2.479  -1.554  -0.198  1.00  0.00     0.016 A 
ATOM     14  C   UNL     1       3.868  -1.551  -0.058  1.00  0.00     0.051 A 
ATOM     15  C   UNL     1       4.561  -0.355   0.157  1.00  0.00     0.157 A 
ATOM     16  C   UNL     1       2.448   0.846   0.100  1.00  0.00     0.062 A 
ATOM     17  C   UNL     1       3.841   0.860   0.241  1.00  0.00     0.158 A 
BRANCH  15  18
ATOM     18  O   UNL     1       5.950  -0.420   0.285  1.00  0.00    -0.504 OA
ATOM     19  H   UNL     1       6.542   0.385   0.438  1.00  0.00     0.293 HD
ENDBRANCH  15  18
BRANCH  17  20
ATOM     20  O   UNL     1       4.462   2.091   0.463  1.00  0.00    -0.504 OA
ATOM     21  H   UNL     1       5.458   2.208   0.583  1.00  0.00     0.293 HD
ENDBRANCH  17  20
ENDBRANCH   1  12
BRANCH   2  22
ATOM     22  O   UNL     1       0.313  -1.861  -2.146  1.00  0.00    -0.502 OA
ATOM     23  H   UNL     1      -0.142  -2.418  -2.859  1.00  0.00     0.293 HD
ENDBRANCH   2  22
BRANCH   6  24
ATOM     24  O   UNL     1      -4.806  -0.954  -0.988  1.00  0.00    -0.507 OA
ATOM     25  H   UNL     1      -4.555  -1.827  -1.425  1.00  0.00     0.293 HD
ENDBRANCH   6  24
BRANCH   8  26
ATOM     26  O   UNL     1      -4.320   2.458   2.355  1.00  0.00    -0.508 OA
ATOM     27  H   UNL     1      -5.325   2.574   2.401  1.00  0.00     0.293 HD
ENDBRANCH   8  26
TORSDOF 6
