REMARK SMILES O=c1c(O[C@@H]2O[C@@H](CO)[C@@H](O)[C@H](O)[C@@H]2O)c(-c2ccc(O)c(O)c2)oc2cc(O)cc(O)c12
REMARK SMILES IDX 4 1 3 2 16 3 25 4 2 5 26 6 1 7 33 8 27 9 31 10 28 11 30 12
REMARK SMILES IDX 17 13 18 14 19 15 20 16 24 17 22 18 21 19 23 21 32 23 29 25
REMARK SMILES IDX 5 27 14 28 6 29 12 30 7 31 10 32 15 33 13 35 8 37 9 38 11 40
REMARK H PARENT 21 20 23 22 32 24 29 26 15 34 13 36 9 39 11 41
REMARK Flexibility Score: inf
ROOT
ATOM      1  O   UNL     1      -0.541  -0.237  -0.040  1.00  0.00    -0.454 OA
ENDROOT
BRANCH   1   2
ATOM      2  C   UNL     1       0.251  -1.160   0.667  1.00  0.00     0.214 A 
ATOM      3  C   UNL     1       1.111  -2.005  -0.060  1.00  0.00     0.180 A 
ATOM      4  O   UNL     1       1.780  -2.962   0.571  1.00  0.00    -0.452 OA
ATOM      5  C   UNL     1       0.199  -1.293   2.073  1.00  0.00     0.239 A 
ATOM      6  C   UNL     1       1.727  -3.157   1.880  1.00  0.00     0.146 A 
ATOM      7  O   UNL     1      -0.482  -0.476   2.736  1.00  0.00    -0.285 OA
ATOM      8  C   UNL     1       0.944  -2.317   2.716  1.00  0.00     0.111 A 
ATOM      9  C   UNL     1       2.467  -4.211   2.420  1.00  0.00     0.094 A 
ATOM     10  C   UNL     1       0.954  -2.566   4.128  1.00  0.00     0.134 A 
ATOM     11  C   UNL     1       2.455  -4.458   3.789  1.00  0.00     0.123 A 
ATOM     12  C   UNL     1       1.705  -3.636   4.631  1.00  0.00     0.093 A 
BRANCH   3  13
ATOM     13  C   UNL     1       1.250  -1.915  -1.533  1.00  0.00     0.025 A 
ATOM     14  C   UNL     1       1.361  -3.091  -2.292  1.00  0.00     0.016 A 
ATOM     15  C   UNL     1       1.458  -3.033  -3.686  1.00  0.00     0.051 A 
ATOM     16  C   UNL     1       1.464  -1.795  -4.341  1.00  0.00     0.157 A 
ATOM     17  C   UNL     1       1.302  -0.673  -2.196  1.00  0.00     0.062 A 
ATOM     18  C   UNL     1       1.396  -0.614  -3.593  1.00  0.00     0.158 A 
BRANCH  16  19
ATOM     19  O   UNL     1       1.526  -1.732  -5.731  1.00  0.00    -0.504 OA
ATOM     20  H   UNL     1       1.569  -2.569  -6.301  1.00  0.00     0.293 HD
ENDBRANCH  16  19
BRANCH  18  21
ATOM     21  O   UNL     1       1.412   0.616  -4.246  1.00  0.00    -0.504 OA
ATOM     22  H   UNL     1       1.359   1.489  -3.733  1.00  0.00     0.293 HD
ENDBRANCH  18  21
ENDBRANCH   3  13
BRANCH  10  23
ATOM     23  O   UNL     1       0.264  -1.806   5.079  1.00  0.00    -0.507 OA
ATOM     24  H   UNL     1      -0.283  -0.980   4.905  1.00  0.00     0.293 HD
ENDBRANCH  10  23
BRANCH  11  25
ATOM     25  O   UNL     1       3.180  -5.529   4.300  1.00  0.00    -0.508 OA
ATOM     26  H   UNL     1       3.182  -5.744   5.293  1.00  0.00     0.293 HD
ENDBRANCH  11  25
ENDBRANCH   1   2
BRANCH   1  27
ATOM     27  C   UNL     1      -1.836   0.240   0.342  1.00  0.00     0.339 C 
ATOM     28  C   UNL     1      -2.481   1.030  -0.816  1.00  0.00     0.214 C 
ATOM     29  O   UNL     1      -2.680  -0.819   0.779  1.00  0.00    -0.332 OA
ATOM     30  C   UNL     1      -2.862   0.087  -1.976  1.00  0.00     0.180 C 
ATOM     31  C   UNL     1      -2.927  -1.751  -0.261  1.00  0.00     0.179 C 
ATOM     32  C   UNL     1      -3.694  -1.090  -1.429  1.00  0.00     0.177 C 
BRANCH  28  33
ATOM     33  O   UNL     1      -1.593   2.021  -1.268  1.00  0.00    -0.384 OA
ATOM     34  H   UNL     1      -2.139   2.720  -1.718  1.00  0.00     0.211 HD
ENDBRANCH  28  33
BRANCH  30  35
ATOM     35  O   UNL     1      -1.692  -0.358  -2.620  1.00  0.00    -0.387 OA
ATOM     36  H   UNL     1      -1.913  -1.132  -3.206  1.00  0.00     0.211 HD
ENDBRANCH  30  35
BRANCH  31  37
ATOM     37  C   UNL     1      -3.674  -2.962   0.314  1.00  0.00     0.191 C 
BRANCH  37  38
ATOM     38  O   UNL     1      -4.801  -2.549   1.041  1.00  0.00    -0.394 OA
ATOM     39  H   UNL     1      -5.024  -3.289   1.668  1.00  0.00     0.210 HD
ENDBRANCH  37  38
ENDBRANCH  31  37
BRANCH  32  40
ATOM     40  O   UNL     1      -4.943  -0.607  -0.996  1.00  0.00    -0.387 OA
ATOM     41  H   UNL     1      -5.609  -1.325  -1.162  1.00  0.00     0.211 HD
ENDBRANCH  32  40
ENDBRANCH   1  27
TORSDOF 12
