REMARK SMILES O=c1ccc2ccc(O)cc2o1
REMARK SMILES IDX 6 1 7 2 8 3 10 4 11 5 5 6 4 7 3 8 2 9 1 10 12 11 9 12
REMARK H PARENT 9 13
REMARK Flexibility Score: inf
ROOT
ATOM      1  C   UNL     1      -0.660  -1.564  -0.164  1.00  0.00     0.016 A 
ATOM      2  C   UNL     1      -1.972  -1.089  -0.063  1.00  0.00     0.047 A 
ATOM      3  C   UNL     1      -2.219   0.278   0.107  1.00  0.00     0.119 A 
ATOM      4  C   UNL     1      -1.146   1.179   0.178  1.00  0.00     0.094 A 
ATOM      5  C   UNL     1       0.170   0.714   0.079  1.00  0.00     0.142 A 
ATOM      6  C   UNL     1       0.415  -0.667  -0.093  1.00  0.00     0.018 A 
ATOM      7  C   UNL     1       1.740  -1.102  -0.189  1.00  0.00     0.019 A 
ATOM      8  C   UNL     1       2.774  -0.169  -0.113  1.00  0.00     0.094 A 
ATOM      9  C   UNL     1       2.456   1.183   0.058  1.00  0.00     0.336 A 
ATOM     10  O   UNL     1       3.375   2.040   0.129  1.00  0.00    -0.246 OA
ATOM     11  O   UNL     1       1.186   1.570   0.147  1.00  0.00    -0.423 OA
ENDROOT
BRANCH   3  12
ATOM     12  O   UNL     1      -3.532   0.731   0.205  1.00  0.00    -0.508 OA
ATOM     13  H   UNL     1      -3.745   1.714   0.329  1.00  0.00     0.293 HD
ENDBRANCH   3  12
TORSDOF 1
