REMARK SMILES O=c1ccc2cc(O)c(O)cc2o1
REMARK SMILES IDX 4 1 3 2 2 3 1 4 13 5 12 6 11 7 9 8 7 9 6 10 5 11 8 12 10 14
REMARK H PARENT 8 13 10 15
REMARK Flexibility Score: inf
ROOT
ATOM      1  C   UNL     1       1.773   0.996   0.636  1.00  0.00     0.019 A 
ATOM      2  C   UNL     1       2.908   0.437   0.050  1.00  0.00     0.094 A 
ATOM      3  C   UNL     1       2.756  -0.641  -0.829  1.00  0.00     0.336 A 
ATOM      4  O   UNL     1       3.769  -1.159  -1.368  1.00  0.00    -0.246 OA
ATOM      5  O   UNL     1       1.547  -1.125  -1.100  1.00  0.00    -0.423 OA
ATOM      6  C   UNL     1       0.438  -0.621  -0.562  1.00  0.00     0.142 A 
ATOM      7  C   UNL     1      -0.807  -1.170  -0.884  1.00  0.00     0.098 A 
ATOM      8  C   UNL     1      -1.978  -0.643  -0.321  1.00  0.00     0.161 A 
ATOM      9  C   UNL     1      -1.904   0.439   0.569  1.00  0.00     0.158 A 
ATOM     10  C   UNL     1      -0.658   0.994   0.895  1.00  0.00     0.062 A 
ATOM     11  C   UNL     1       0.514   0.468   0.333  1.00  0.00     0.022 A 
ENDROOT
BRANCH   9  12
ATOM     12  O   UNL     1      -3.073   0.956   1.124  1.00  0.00    -0.504 OA
ATOM     13  H   UNL     1      -3.053   1.737   1.770  1.00  0.00     0.293 HD
ENDBRANCH   9  12
BRANCH   8  14
ATOM     14  O   UNL     1      -3.220  -1.189  -0.640  1.00  0.00    -0.504 OA
ATOM     15  H   UNL     1      -3.308  -1.970  -1.279  1.00  0.00     0.293 HD
ENDBRANCH   8  14
TORSDOF 2
