REMARK SMILES O=c1c(O)c(-c2ccc(O)cc2O)oc2cc(O)cc(O)c12
REMARK SMILES IDX 5 1 3 2 2 3 1 4 22 5 20 6 19 7 17 8 16 9 15 10 14 11 6 12
REMARK SMILES IDX 8 13 7 14 9 15 11 16 12 17 10 18 13 20 4 22 21 24 18 26
REMARK H PARENT 10 19 13 21 4 23 21 25 18 27
REMARK Flexibility Score: inf
ROOT
ATOM      1  C   UNL     1       0.433   0.180   0.001  1.00  0.00     0.184 A 
ATOM      2  C   UNL     1       0.086   1.032  -1.058  1.00  0.00     0.208 A 
ATOM      3  C   UNL     1      -1.272   1.243  -1.345  1.00  0.00     0.238 A 
ATOM      4  O   UNL     1      -1.579   2.050  -2.261  1.00  0.00    -0.285 OA
ATOM      5  C   UNL     1      -2.264   0.585  -0.577  1.00  0.00     0.111 A 
ATOM      6  C   UNL     1      -3.669   0.693  -0.804  1.00  0.00     0.134 A 
ATOM      7  C   UNL     1      -4.561   0.100   0.098  1.00  0.00     0.093 A 
ATOM      8  C   UNL     1      -4.099  -0.650   1.181  1.00  0.00     0.123 A 
ATOM      9  C   UNL     1      -2.729  -0.811   1.377  1.00  0.00     0.094 A 
ATOM     10  C   UNL     1      -1.814  -0.202   0.516  1.00  0.00     0.146 A 
ATOM     11  O   UNL     1      -0.517  -0.371   0.745  1.00  0.00    -0.451 OA
ENDROOT
BRANCH   1  12
ATOM     12  C   UNL     1       1.844  -0.097   0.344  1.00  0.00     0.063 A 
ATOM     13  C   UNL     1       3.594  -0.178   2.030  1.00  0.00     0.047 A 
ATOM     14  C   UNL     1       2.269   0.080   1.670  1.00  0.00     0.020 A 
ATOM     15  C   UNL     1       4.507  -0.630   1.073  1.00  0.00     0.119 A 
ATOM     16  C   UNL     1       4.087  -0.832  -0.247  1.00  0.00     0.093 A 
ATOM     17  C   UNL     1       2.757  -0.581  -0.616  1.00  0.00     0.130 A 
BRANCH  15  18
ATOM     18  O   UNL     1       5.826  -0.879   1.446  1.00  0.00    -0.508 OA
ATOM     19  H   UNL     1       6.512  -1.209   0.777  1.00  0.00     0.293 HD
ENDBRANCH  15  18
BRANCH  17  20
ATOM     20  O   UNL     1       2.339  -0.833  -1.923  1.00  0.00    -0.507 OA
ATOM     21  H   UNL     1       2.978  -1.186  -2.626  1.00  0.00     0.293 HD
ENDBRANCH  17  20
ENDBRANCH   1  12
BRANCH   2  22
ATOM     22  O   UNL     1       1.084   1.684  -1.788  1.00  0.00    -0.502 OA
ATOM     23  H   UNL     1       0.875   2.311  -2.556  1.00  0.00     0.293 HD
ENDBRANCH   2  22
BRANCH   6  24
ATOM     24  O   UNL     1      -4.234   1.341  -1.906  1.00  0.00    -0.507 OA
ATOM     25  H   UNL     1      -3.742   1.556  -2.761  1.00  0.00     0.293 HD
ENDBRANCH   6  24
BRANCH   8  26
ATOM     26  O   UNL     1      -4.994  -1.249   2.065  1.00  0.00    -0.508 OA
ATOM     27  H   UNL     1      -5.997  -1.154   1.949  1.00  0.00     0.293 HD
ENDBRANCH   8  26
TORSDOF 6
