REMARK SMILES CCCCCCCCCCCCCCCCCC(=O)[O-]
REMARK SMILES IDX 10 1 11 2 12 3 13 4 14 5 15 6 16 7 17 8 18 9 19 10 20 11
REMARK SMILES IDX 9 12 8 13 7 14 6 15 5 16 4 17 3 18 2 19 1 20
REMARK H PARENT
REMARK Flexibility Score: inf
ROOT
ATOM      1  C   UNL     1       0.261   0.171  -0.494  1.00  0.00     0.000 C 
ENDROOT
BRANCH   1   2
ATOM      2  C   UNL     1       1.482  -0.713  -0.770  1.00  0.00     0.000 C 
BRANCH   2   3
ATOM      3  C   UNL     1       1.683  -1.742   0.354  1.00  0.00     0.000 C 
BRANCH   3   4
ATOM      4  C   UNL     1       2.909  -2.647   0.107  1.00  0.00     0.000 C 
BRANCH   4   5
ATOM      5  C   UNL     1       4.147  -2.250   0.929  1.00  0.00     0.000 C 
BRANCH   5   6
ATOM      6  C   UNL     1       4.724  -0.886   0.523  1.00  0.00     0.000 C 
BRANCH   6   7
ATOM      7  C   UNL     1       6.065  -0.624   1.218  1.00  0.00     0.006 C 
BRANCH   7   8
ATOM      8  C   UNL     1       6.629   0.743   0.823  1.00  0.00     0.053 C 
BRANCH   8   9
ATOM      9  C   UNL     1       7.948   0.978   1.489  1.00  0.00     0.041 C 
ATOM     10  O   UNL     1       7.999   1.546   2.611  1.00  0.00    -0.550 OA
ATOM     11  O   UNL     1       9.118   0.529   0.890  1.00  0.00    -0.550 OA
ENDBRANCH   8   9
ENDBRANCH   7   8
ENDBRANCH   6   7
ENDBRANCH   5   6
ENDBRANCH   4   5
ENDBRANCH   3   4
ENDBRANCH   2   3
ENDBRANCH   1   2
BRANCH   1  12
ATOM     12  C   UNL     1       0.082   1.224  -1.597  1.00  0.00     0.000 C 
BRANCH  12  13
ATOM     13  C   UNL     1      -1.139   2.135  -1.350  1.00  0.00    -0.000 C 
BRANCH  13  14
ATOM     14  C   UNL     1      -2.354   1.796  -2.234  1.00  0.00    -0.000 C 
BRANCH  14  15
ATOM     15  C   UNL     1      -2.997   0.423  -1.958  1.00  0.00    -0.000 C 
BRANCH  15  16
ATOM     16  C   UNL     1      -3.582   0.248  -0.544  1.00  0.00    -0.000 C 
BRANCH  16  17
ATOM     17  C   UNL     1      -4.758   1.200  -0.263  1.00  0.00    -0.000 C 
BRANCH  17  18
ATOM     18  C   UNL     1      -5.422   0.927   1.097  1.00  0.00    -0.000 C 
BRANCH  18  19
ATOM     19  C   UNL     1      -6.333  -0.309   1.072  1.00  0.00    -0.003 C 
ATOM     20  C   UNL     1      -7.055  -0.486   2.405  1.00  0.00     0.004 C 
ENDBRANCH  18  19
ENDBRANCH  17  18
ENDBRANCH  16  17
ENDBRANCH  15  16
ENDBRANCH  14  15
ENDBRANCH  13  14
ENDBRANCH  12  13
ENDBRANCH   1  12
TORSDOF 16
