REMARK SMILES O=c1c(O[C@H]2O[C@@H](CO)[C@H](O)[C@@H](O)[C@@H]2O)c(-c2ccc(O)c(O)c2)oc2cc(O)cc(O)c12
REMARK SMILES IDX 4 1 3 2 16 3 25 4 2 5 26 6 1 7 33 8 27 9 31 10 28 11 30 12
REMARK SMILES IDX 17 13 18 14 19 15 20 16 24 17 22 18 21 19 23 21 32 23 29 25
REMARK SMILES IDX 5 27 14 28 6 29 12 30 7 31 10 32 15 33 13 35 8 37 9 38 11 40
REMARK H PARENT 21 20 23 22 32 24 29 26 15 34 13 36 9 39 11 41
REMARK Flexibility Score: inf
ROOT
ATOM      1  O   UNL     1       1.358   1.420  -0.348  1.00  0.00    -0.454 OA
ENDROOT
BRANCH   1   2
ATOM      2  C   UNL     1       0.934   2.446  -1.214  1.00  0.00     0.214 A 
ATOM      3  C   UNL     1       0.204   3.524  -0.674  1.00  0.00     0.180 A 
ATOM      4  O   UNL     1      -0.288   4.465  -1.472  1.00  0.00    -0.452 OA
ATOM      5  C   UNL     1       1.194   2.440  -2.600  1.00  0.00     0.239 A 
ATOM      6  C   UNL     1      -0.086   4.486  -2.783  1.00  0.00     0.146 A 
ATOM      7  O   UNL     1       1.904   1.530  -3.105  1.00  0.00    -0.285 OA
ATOM      8  C   UNL     1       0.686   3.477  -3.409  1.00  0.00     0.111 A 
ATOM      9  C   UNL     1      -0.634   5.525  -3.538  1.00  0.00     0.094 A 
ATOM     10  C   UNL     1       0.916   3.554  -4.806  1.00  0.00     0.134 A 
ATOM     11  C   UNL     1      -0.404   5.596  -4.912  1.00  0.00     0.123 A 
ATOM     12  C   UNL     1       0.374   4.616  -5.542  1.00  0.00     0.093 A 
BRANCH   3  13
ATOM     13  C   UNL     1      -0.063   3.633   0.776  1.00  0.00     0.025 A 
ATOM     14  C   UNL     1      -1.350   3.982   1.219  1.00  0.00     0.016 A 
ATOM     15  C   UNL     1      -1.612   4.127   2.583  1.00  0.00     0.051 A 
ATOM     16  C   UNL     1      -0.587   3.945   3.521  1.00  0.00     0.157 A 
ATOM     17  C   UNL     1       0.966   3.461   1.719  1.00  0.00     0.062 A 
ATOM     18  C   UNL     1       0.705   3.612   3.087  1.00  0.00     0.158 A 
BRANCH  16  19
ATOM     19  O   UNL     1      -0.841   4.099   4.882  1.00  0.00    -0.504 OA
ATOM     20  H   UNL     1      -1.764   4.348   5.223  1.00  0.00     0.293 HD
ENDBRANCH  16  19
BRANCH  18  21
ATOM     21  O   UNL     1       1.723   3.439   4.022  1.00  0.00    -0.504 OA
ATOM     22  H   UNL     1       2.667   3.190   3.743  1.00  0.00     0.293 HD
ENDBRANCH  18  21
ENDBRANCH   3  13
BRANCH  10  23
ATOM     23  O   UNL     1       1.678   2.587  -5.464  1.00  0.00    -0.507 OA
ATOM     24  H   UNL     1       1.873   2.643  -6.456  1.00  0.00     0.293 HD
ENDBRANCH  10  23
BRANCH  11  25
ATOM     25  O   UNL     1      -0.949   6.648  -5.644  1.00  0.00    -0.508 OA
ATOM     26  H   UNL     1      -0.789   6.737  -6.641  1.00  0.00     0.293 HD
ENDBRANCH  11  25
ENDBRANCH   1   2
BRANCH   1  27
ATOM     27  C   UNL     1       1.466   0.034  -0.682  1.00  0.00     0.339 C 
ATOM     28  C   UNL     1       1.230  -0.828   0.578  1.00  0.00     0.214 C 
ATOM     29  O   UNL     1       2.711  -0.243  -1.306  1.00  0.00    -0.332 OA
ATOM     30  C   UNL     1       2.407  -0.735   1.589  1.00  0.00     0.180 C 
ATOM     31  C   UNL     1       3.844  -0.306  -0.440  1.00  0.00     0.179 C 
ATOM     32  C   UNL     1       3.584   0.093   1.035  1.00  0.00     0.177 C 
BRANCH  28  33
ATOM     33  O   UNL     1       0.988  -2.165   0.213  1.00  0.00    -0.384 OA
ATOM     34  H   UNL     1       1.799  -2.507  -0.246  1.00  0.00     0.211 HD
ENDBRANCH  28  33
BRANCH  30  35
ATOM     35  O   UNL     1       1.976  -0.216   2.822  1.00  0.00    -0.387 OA
ATOM     36  H   UNL     1       1.655   0.710   2.661  1.00  0.00     0.211 HD
ENDBRANCH  30  35
BRANCH  31  37
ATOM     37  C   UNL     1       4.971   0.546  -1.046  1.00  0.00     0.191 C 
BRANCH  37  38
ATOM     38  O   UNL     1       5.232   0.158  -2.370  1.00  0.00    -0.394 OA
ATOM     39  H   UNL     1       5.560  -0.776  -2.335  1.00  0.00     0.210 HD
ENDBRANCH  37  38
ENDBRANCH  31  37
BRANCH  32  40
ATOM     40  O   UNL     1       4.736  -0.151   1.801  1.00  0.00    -0.387 OA
ATOM     41  H   UNL     1       4.638   0.362   2.645  1.00  0.00     0.211 HD
ENDBRANCH  32  40
ENDBRANCH   1  27
TORSDOF 12
