REMARK SMILES O=c1c(O[C@H]2O[C@H](CO)[C@@H](O)[C@@H](O)[C@@H]2O)c(-c2ccc(O)cc2)oc2cc(O)cc(O)c12
REMARK SMILES IDX 4 1 3 2 16 3 24 4 2 5 25 6 1 7 32 8 26 9 30 10 27 11 29 12
REMARK SMILES IDX 17 13 18 14 19 15 20 16 23 17 22 18 21 19 31 21 28 23 5 25
REMARK SMILES IDX 14 26 6 27 12 28 7 29 10 30 15 31 13 33 8 35 9 36 11 38
REMARK H PARENT 21 20 31 22 28 24 15 32 13 34 9 37 11 39
REMARK Flexibility Score: inf
ROOT
ATOM      1  O   UNL     1       1.594  -1.610   1.143  1.00  0.00    -0.454 OA
ENDROOT
BRANCH   1   2
ATOM      2  C   UNL     1       0.784  -2.688   1.518  1.00  0.00     0.214 A 
ATOM      3  C   UNL     1      -0.046  -2.614   2.649  1.00  0.00     0.180 A 
ATOM      4  O   UNL     1      -0.928  -3.576   2.885  1.00  0.00    -0.452 OA
ATOM      5  C   UNL     1       0.743  -3.837   0.716  1.00  0.00     0.239 A 
ATOM      6  C   UNL     1      -1.033  -4.667   2.130  1.00  0.00     0.146 A 
ATOM      7  O   UNL     1       1.466  -3.877  -0.316  1.00  0.00    -0.285 OA
ATOM      8  C   UNL     1      -0.154  -4.885   1.036  1.00  0.00     0.111 A 
ATOM      9  C   UNL     1      -2.033  -5.596   2.431  1.00  0.00     0.094 A 
ATOM     10  C   UNL     1      -0.269  -6.101   0.305  1.00  0.00     0.134 A 
ATOM     11  C   UNL     1      -2.186  -6.746   1.662  1.00  0.00     0.123 A 
ATOM     12  C   UNL     1      -1.304  -6.994   0.611  1.00  0.00     0.093 A 
BRANCH   3  13
ATOM     13  C   UNL     1       0.032  -1.487   3.588  1.00  0.00     0.021 A 
ATOM     14  C   UNL     1       1.214  -1.244   4.302  1.00  0.00     0.016 A 
ATOM     15  C   UNL     1       1.274  -0.194   5.233  1.00  0.00     0.047 A 
ATOM     16  C   UNL     1       0.158   0.631   5.432  1.00  0.00     0.115 A 
ATOM     17  C   UNL     1      -1.088  -0.676   3.809  1.00  0.00     0.016 A 
ATOM     18  C   UNL     1      -1.018   0.390   4.715  1.00  0.00     0.047 A 
BRANCH  16  19
ATOM     19  O   UNL     1       0.213   1.700   6.331  1.00  0.00    -0.508 OA
ATOM     20  H   UNL     1       1.046   1.904   6.873  1.00  0.00     0.293 HD
ENDBRANCH  16  19
ENDBRANCH   3  13
BRANCH  10  21
ATOM     21  O   UNL     1       0.614  -6.484  -0.708  1.00  0.00    -0.507 OA
ATOM     22  H   UNL     1       1.551  -6.119  -0.827  1.00  0.00     0.293 HD
ENDBRANCH  10  21
BRANCH  11  23
ATOM     23  O   UNL     1      -3.215  -7.636   1.956  1.00  0.00    -0.508 OA
ATOM     24  H   UNL     1      -3.368  -8.470   1.400  1.00  0.00     0.293 HD
ENDBRANCH  11  23
ENDBRANCH   1   2
BRANCH   1  25
ATOM     25  C   UNL     1       1.033  -0.350   0.751  1.00  0.00     0.339 C 
ATOM     26  C   UNL     1       1.444   0.023  -0.686  1.00  0.00     0.214 C 
ATOM     27  O   UNL     1       1.361   0.670   1.678  1.00  0.00    -0.332 OA
ATOM     28  C   UNL     1       2.935   0.379  -0.741  1.00  0.00     0.180 C 
ATOM     29  C   UNL     1       2.757   0.930   1.733  1.00  0.00     0.179 C 
ATOM     30  C   UNL     1       3.287   1.403   0.346  1.00  0.00     0.177 C 
BRANCH  26  31
ATOM     31  O   UNL     1       0.690   1.125  -1.117  1.00  0.00    -0.384 OA
ATOM     32  H   UNL     1      -0.181   0.771  -1.439  1.00  0.00     0.211 HD
ENDBRANCH  26  31
BRANCH  28  33
ATOM     33  O   UNL     1       3.717  -0.776  -0.581  1.00  0.00    -0.387 OA
ATOM     34  H   UNL     1       3.692  -1.261  -1.447  1.00  0.00     0.211 HD
ENDBRANCH  28  33
BRANCH  29  35
ATOM     35  C   UNL     1       2.995   2.003   2.820  1.00  0.00     0.191 C 
BRANCH  35  36
ATOM     36  O   UNL     1       1.972   2.959   2.796  1.00  0.00    -0.394 OA
ATOM     37  H   UNL     1       2.130   3.548   3.580  1.00  0.00     0.210 HD
ENDBRANCH  35  36
ENDBRANCH  29  35
BRANCH  30  38
ATOM     38  O   UNL     1       4.682   1.623   0.311  1.00  0.00    -0.387 OA
ATOM     39  H   UNL     1       5.106   1.344   1.165  1.00  0.00     0.211 HD
ENDBRANCH  30  38
ENDBRANCH   1  25
TORSDOF 11
