REMARK SMILES CCOC(=O)C=Cc1ccc(O)c(O)c1
REMARK SMILES IDX 6 1 7 2 4 3 5 4 3 5 2 6 1 7 8 8 15 9 9 10 13 11 10 12 11 13
REMARK SMILES IDX 14 14 12 16
REMARK H PARENT 14 15 12 17
REMARK Flexibility Score: inf
ROOT
ATOM      1  C   UNL     1       0.847   0.008   0.541  1.00  0.00     0.094 C 
ATOM      2  C   UNL     1       0.024  -0.617  -0.313  1.00  0.00     0.016 C 
ENDROOT
BRANCH   1   3
ATOM      3  C   UNL     1       2.296  -0.251   0.570  1.00  0.00     0.330 C 
ATOM      4  O   UNL     1       2.813  -1.107  -0.201  1.00  0.00    -0.247 OA
BRANCH   3   5
ATOM      5  O   UNL     1       3.090   0.462   1.474  1.00  0.00    -0.463 OA
BRANCH   5   6
ATOM      6  C   UNL     1       4.508   0.324   1.555  1.00  0.00     0.230 C 
ATOM      7  C   UNL     1       5.186   1.048   0.398  1.00  0.00     0.049 C 
ENDBRANCH   5   6
ENDBRANCH   3   5
ENDBRANCH   1   3
BRANCH   2   8
ATOM      8  C   UNL     1      -1.438  -0.371  -0.379  1.00  0.00    -0.021 A 
ATOM      9  C   UNL     1      -2.128  -0.723  -1.551  1.00  0.00     0.058 A 
ATOM     10  C   UNL     1      -2.165   0.169   0.701  1.00  0.00     0.012 A 
ATOM     11  C   UNL     1      -3.508  -0.521  -1.660  1.00  0.00     0.157 A 
ATOM     12  C   UNL     1      -3.543   0.371   0.595  1.00  0.00     0.051 A 
ATOM     13  C   UNL     1      -4.221   0.032  -0.583  1.00  0.00     0.157 A 
BRANCH  11  14
ATOM     14  O   UNL     1      -4.154  -0.875  -2.844  1.00  0.00    -0.504 OA
ATOM     15  H   UNL     1      -5.150  -0.749  -2.973  1.00  0.00     0.293 HD
ENDBRANCH  11  14
BRANCH  13  16
ATOM     16  O   UNL     1      -5.596   0.237  -0.685  1.00  0.00    -0.504 OA
ATOM     17  H   UNL     1      -6.131   0.633   0.078  1.00  0.00     0.293 HD
ENDBRANCH  13  16
ENDBRANCH   2   8
TORSDOF 6
