REMARK SMILES O=c1c(O[C@@H]2O[C@@H](CO)[C@@H](O)[C@@H](O)[C@@H]2O)c(-c2ccc(O)c(O)c2)oc2cc(O)cc(O)c12
REMARK SMILES IDX 4 1 3 2 16 3 25 4 2 5 26 6 1 7 33 8 27 9 31 10 28 11 30 12
REMARK SMILES IDX 17 13 18 14 19 15 20 16 24 17 22 18 21 19 23 21 32 23 29 25
REMARK SMILES IDX 5 27 14 28 6 29 12 30 7 31 10 32 15 33 13 35 8 37 9 38 11 40
REMARK H PARENT 21 20 23 22 32 24 29 26 15 34 13 36 9 39 11 41
REMARK Flexibility Score: inf
ROOT
ATOM      1  O   UNL     1       1.392  -2.687   0.913  1.00  0.00    -0.454 OA
ENDROOT
BRANCH   1   2
ATOM      2  C   UNL     1       0.066  -2.982   1.241  1.00  0.00     0.214 A 
ATOM      3  C   UNL     1      -0.870  -3.321   0.241  1.00  0.00     0.180 A 
ATOM      4  O   UNL     1      -2.126  -3.597   0.586  1.00  0.00    -0.452 OA
ATOM      5  C   UNL     1      -0.345  -2.955   2.580  1.00  0.00     0.239 A 
ATOM      6  C   UNL     1      -2.560  -3.583   1.841  1.00  0.00     0.146 A 
ATOM      7  O   UNL     1       0.503  -2.706   3.481  1.00  0.00    -0.285 OA
ATOM      8  C   UNL     1      -1.685  -3.248   2.901  1.00  0.00     0.111 A 
ATOM      9  C   UNL     1      -3.894  -3.910   2.107  1.00  0.00     0.094 A 
ATOM     10  C   UNL     1      -2.183  -3.234   4.223  1.00  0.00     0.134 A 
ATOM     11  C   UNL     1      -4.374  -3.913   3.419  1.00  0.00     0.123 A 
ATOM     12  C   UNL     1      -3.517  -3.575   4.474  1.00  0.00     0.093 A 
BRANCH   3  13
ATOM     13  C   UNL     1      -0.519  -3.360  -1.199  1.00  0.00     0.025 A 
ATOM     14  C   UNL     1       0.718  -3.857  -1.650  1.00  0.00     0.016 A 
ATOM     15  C   UNL     1       1.014  -3.889  -3.014  1.00  0.00     0.051 A 
ATOM     16  C   UNL     1       0.067  -3.458  -3.954  1.00  0.00     0.157 A 
ATOM     17  C   UNL     1      -1.471  -2.945  -2.149  1.00  0.00     0.062 A 
ATOM     18  C   UNL     1      -1.184  -2.990  -3.518  1.00  0.00     0.158 A 
BRANCH  16  19
ATOM     19  O   UNL     1       0.363  -3.495  -5.316  1.00  0.00    -0.504 OA
ATOM     20  H   UNL     1       1.265  -3.812  -5.654  1.00  0.00     0.293 HD
ENDBRANCH  16  19
BRANCH  18  21
ATOM     21  O   UNL     1      -2.155  -2.569  -4.428  1.00  0.00    -0.504 OA
ATOM     22  H   UNL     1      -2.001  -2.593  -5.429  1.00  0.00     0.293 HD
ENDBRANCH  18  21
ENDBRANCH   3  13
BRANCH  10  23
ATOM     23  O   UNL     1      -1.370  -2.863   5.292  1.00  0.00    -0.507 OA
ATOM     24  H   UNL     1      -0.912  -3.562   5.864  1.00  0.00     0.293 HD
ENDBRANCH  10  23
BRANCH  11  25
ATOM     25  O   UNL     1      -5.702  -4.252   3.665  1.00  0.00    -0.508 OA
ATOM     26  H   UNL     1      -6.098  -4.200   4.598  1.00  0.00     0.293 HD
ENDBRANCH  11  25
ENDBRANCH   1   2
BRANCH   1  27
ATOM     27  C   UNL     1       1.935  -1.373   0.991  1.00  0.00     0.339 C 
ATOM     28  C   UNL     1       3.256  -1.403   1.834  1.00  0.00     0.214 C 
ATOM     29  O   UNL     1       1.987  -0.829  -0.325  1.00  0.00    -0.332 OA
ATOM     30  C   UNL     1       4.301  -0.304   1.473  1.00  0.00     0.180 C 
ATOM     31  C   UNL     1       3.293  -0.616  -0.811  1.00  0.00     0.179 C 
ATOM     32  C   UNL     1       4.037   0.365   0.109  1.00  0.00     0.177 C 
BRANCH  28  33
ATOM     33  O   UNL     1       3.850  -2.680   1.819  1.00  0.00    -0.384 OA
ATOM     34  H   UNL     1       4.157  -2.868   0.898  1.00  0.00     0.211 HD
ENDBRANCH  28  33
BRANCH  30  35
ATOM     35  O   UNL     1       4.348   0.673   2.486  1.00  0.00    -0.387 OA
ATOM     36  H   UNL     1       4.947   0.328   3.197  1.00  0.00     0.211 HD
ENDBRANCH  30  35
BRANCH  31  37
ATOM     37  C   UNL     1       3.214  -0.093  -2.255  1.00  0.00     0.191 C 
BRANCH  37  38
ATOM     38  O   UNL     1       2.366   1.024  -2.329  1.00  0.00    -0.394 OA
ATOM     39  H   UNL     1       2.925   1.803  -2.587  1.00  0.00     0.210 HD
ENDBRANCH  37  38
ENDBRANCH  31  37
BRANCH  32  40
ATOM     40  O   UNL     1       3.264   1.531   0.272  1.00  0.00    -0.387 OA
ATOM     41  H   UNL     1       3.898   2.279   0.422  1.00  0.00     0.211 HD
ENDBRANCH  32  40
ENDBRANCH   1  27
TORSDOF 12
