REMARK SMILES CCCCCCCCCCCCCCCCCCCCCC(=O)[O-]
REMARK SMILES IDX 12 1 11 2 10 3 9 4 8 5 7 6 6 7 5 8 4 9 3 10 2 11 1 12 13 13
REMARK SMILES IDX 14 14 15 15 16 16 17 17 18 18 19 19 20 20 21 21 22 22 23 23
REMARK SMILES IDX 24 24
REMARK H PARENT
REMARK Flexibility Score: inf
ROOT
ATOM      1  C   UNL     1       0.418  -0.181  -3.449  1.00  0.00     0.000 C 
ENDROOT
BRANCH   1   2
ATOM      2  C   UNL     1      -0.530  -1.376  -3.228  1.00  0.00     0.000 C 
BRANCH   2   3
ATOM      3  C   UNL     1      -0.959  -1.605  -1.769  1.00  0.00     0.000 C 
BRANCH   3   4
ATOM      4  C   UNL     1      -1.789  -0.444  -1.201  1.00  0.00    -0.000 C 
BRANCH   4   5
ATOM      5  C   UNL     1      -2.289  -0.766   0.215  1.00  0.00    -0.000 C 
BRANCH   5   6
ATOM      6  C   UNL     1      -2.895   0.456   0.926  1.00  0.00    -0.000 C 
BRANCH   6   7
ATOM      7  C   UNL     1      -4.104   1.095   0.212  1.00  0.00    -0.000 C 
BRANCH   7   8
ATOM      8  C   UNL     1      -5.290   0.147  -0.043  1.00  0.00    -0.000 C 
BRANCH   8   9
ATOM      9  C   UNL     1      -5.920  -0.380   1.258  1.00  0.00    -0.000 C 
BRANCH   9  10
ATOM     10  C   UNL     1      -7.141  -1.286   1.010  1.00  0.00    -0.000 C 
BRANCH  10  11
ATOM     11  C   UNL     1      -8.352  -0.587   0.363  1.00  0.00    -0.003 C 
ATOM     12  C   UNL     1      -8.883   0.583   1.190  1.00  0.00     0.004 C 
ENDBRANCH  10  11
ENDBRANCH   9  10
ENDBRANCH   8   9
ENDBRANCH   7   8
ENDBRANCH   6   7
ENDBRANCH   5   6
ENDBRANCH   4   5
ENDBRANCH   3   4
ENDBRANCH   2   3
ENDBRANCH   1   2
BRANCH   1  13
ATOM     13  C   UNL     1       1.788  -0.329  -2.752  1.00  0.00     0.000 C 
BRANCH  13  14
ATOM     14  C   UNL     1       1.877   0.491  -1.451  1.00  0.00     0.000 C 
BRANCH  14  15
ATOM     15  C   UNL     1       3.291   0.497  -0.848  1.00  0.00     0.000 C 
BRANCH  15  16
ATOM     16  C   UNL     1       3.679  -0.859  -0.234  1.00  0.00     0.000 C 
BRANCH  16  17
ATOM     17  C   UNL     1       5.062  -0.820   0.436  1.00  0.00     0.000 C 
BRANCH  17  18
ATOM     18  C   UNL     1       5.029  -0.130   1.812  1.00  0.00     0.000 C 
BRANCH  18  19
ATOM     19  C   UNL     1       6.369  -0.230   2.563  1.00  0.00     0.000 C 
BRANCH  19  20
ATOM     20  C   UNL     1       7.562   0.440   1.856  1.00  0.00     0.006 C 
BRANCH  20  21
ATOM     21  C   UNL     1       7.351   1.940   1.613  1.00  0.00     0.053 C 
BRANCH  21  22
ATOM     22  C   UNL     1       8.611   2.572   1.110  1.00  0.00     0.041 C 
ATOM     23  O   UNL     1       8.942   2.449  -0.099  1.00  0.00    -0.550 OA
ATOM     24  O   UNL     1       9.440   3.264   1.984  1.00  0.00    -0.550 OA
ENDBRANCH  21  22
ENDBRANCH  20  21
ENDBRANCH  19  20
ENDBRANCH  18  19
ENDBRANCH  17  18
ENDBRANCH  16  17
ENDBRANCH  15  16
ENDBRANCH  14  15
ENDBRANCH  13  14
ENDBRANCH   1  13
TORSDOF 20
