REMARK SMILES O=c1c(OC[C@H]2O[C@H](O)[C@@H](O)[C@@H](O)[C@@H]2O)c(-c2ccc(O)c(O)c2)oc2cc(O)cc(O)c12
REMARK SMILES IDX 4 1 3 2 16 3 25 4 2 5 26 6 1 7 33 8 27 9 31 10 28 11 30 12
REMARK SMILES IDX 17 13 18 14 19 15 20 16 24 17 22 18 21 19 23 21 32 23 29 25
REMARK SMILES IDX 5 27 6 28 14 29 7 30 12 31 8 32 10 33 15 34 13 36 9 38 11 40
REMARK H PARENT 21 20 23 22 32 24 29 26 15 35 13 37 9 39 11 41
REMARK Flexibility Score: inf
ROOT
ATOM      1  O   UNL     1       0.150  -2.119   0.894  1.00  0.00    -0.483 OA
ENDROOT
BRANCH   1   2
ATOM      2  C   UNL     1      -1.103  -2.261   1.525  1.00  0.00     0.211 A 
ATOM      3  C   UNL     1      -1.663  -3.551   1.617  1.00  0.00     0.180 A 
ATOM      4  O   UNL     1      -2.878  -3.721   2.126  1.00  0.00    -0.452 OA
ATOM      5  C   UNL     1      -1.844  -1.174   2.044  1.00  0.00     0.239 A 
ATOM      6  C   UNL     1      -3.617  -2.725   2.597  1.00  0.00     0.146 A 
ATOM      7  O   UNL     1      -1.358  -0.012   2.036  1.00  0.00    -0.285 OA
ATOM      8  C   UNL     1      -3.129  -1.399   2.583  1.00  0.00     0.111 A 
ATOM      9  C   UNL     1      -4.885  -3.006   3.114  1.00  0.00     0.094 A 
ATOM     10  C   UNL     1      -3.946  -0.362   3.099  1.00  0.00     0.134 A 
ATOM     11  C   UNL     1      -5.685  -1.979   3.622  1.00  0.00     0.123 A 
ATOM     12  C   UNL     1      -5.215  -0.665   3.613  1.00  0.00     0.093 A 
BRANCH   3  13
ATOM     13  C   UNL     1      -0.936  -4.746   1.139  1.00  0.00     0.025 A 
ATOM     14  C   UNL     1      -1.595  -5.683   0.330  1.00  0.00     0.016 A 
ATOM     15  C   UNL     1      -0.923  -6.823  -0.119  1.00  0.00     0.051 A 
ATOM     16  C   UNL     1       0.411  -7.048   0.248  1.00  0.00     0.157 A 
ATOM     17  C   UNL     1       0.392  -4.986   1.526  1.00  0.00     0.062 A 
ATOM     18  C   UNL     1       1.070  -6.125   1.078  1.00  0.00     0.158 A 
BRANCH  16  19
ATOM     19  O   UNL     1       1.081  -8.184  -0.202  1.00  0.00    -0.504 OA
ATOM     20  H   UNL     1       0.627  -8.866  -0.798  1.00  0.00     0.293 HD
ENDBRANCH  16  19
BRANCH  18  21
ATOM     21  O   UNL     1       2.393  -6.324   1.469  1.00  0.00    -0.504 OA
ATOM     22  H   UNL     1       2.928  -7.130   1.170  1.00  0.00     0.293 HD
ENDBRANCH  18  21
ENDBRANCH   3  13
BRANCH  10  23
ATOM     23  O   UNL     1      -3.510   0.962   3.099  1.00  0.00    -0.507 OA
ATOM     24  H   UNL     1      -4.087   1.710   3.457  1.00  0.00     0.293 HD
ENDBRANCH  10  23
BRANCH  11  25
ATOM     25  O   UNL     1      -6.949  -2.253   4.139  1.00  0.00    -0.508 OA
ATOM     26  H   UNL     1      -7.318  -3.196   4.164  1.00  0.00     0.293 HD
ENDBRANCH  11  25
ENDBRANCH   1   2
BRANCH   1  27
ATOM     27  C   UNL     1       0.749  -0.892   0.480  1.00  0.00     0.265 C 
BRANCH  27  28
ATOM     28  C   UNL     1       1.988  -1.170  -0.384  1.00  0.00     0.190 C 
ATOM     29  C   UNL     1       3.179  -1.652   0.480  1.00  0.00     0.178 C 
ATOM     30  O   UNL     1       2.320   0.029  -1.069  1.00  0.00    -0.340 OA
ATOM     31  C   UNL     1       4.420  -1.849  -0.410  1.00  0.00     0.179 C 
ATOM     32  C   UNL     1       3.390  -0.164  -1.984  1.00  0.00     0.279 C 
ATOM     33  C   UNL     1       4.678  -0.592  -1.255  1.00  0.00     0.201 C 
BRANCH  29  34
ATOM     34  O   UNL     1       2.853  -2.869   1.101  1.00  0.00    -0.387 OA
ATOM     35  H   UNL     1       3.387  -2.921   1.937  1.00  0.00     0.211 HD
ENDBRANCH  29  34
BRANCH  31  36
ATOM     36  O   UNL     1       5.550  -2.113   0.384  1.00  0.00    -0.387 OA
ATOM     37  H   UNL     1       5.538  -3.083   0.593  1.00  0.00     0.211 HD
ENDBRANCH  31  36
BRANCH  32  38
ATOM     38  O   UNL     1       3.051  -1.094  -2.980  1.00  0.00    -0.366 OA
ATOM     39  H   UNL     1       2.283  -0.708  -3.474  1.00  0.00     0.213 HD
ENDBRANCH  32  38
BRANCH  33  40
ATOM     40  O   UNL     1       5.125   0.452  -0.426  1.00  0.00    -0.385 OA
ATOM     41  H   UNL     1       5.546   1.131  -1.017  1.00  0.00     0.211 HD
ENDBRANCH  33  40
ENDBRANCH  27  28
ENDBRANCH   1  27
TORSDOF 12
