REMARK SMILES CC[C@H](CC[C@H](C)[C@@H]1CC[C@@H]2[C@@H]3CC=C4C[C@@H](O[C@H]5O[C@H](CO)[C@H](O)[C@@H](O)[C@H]5O)CC[C@@]4(C)[C@@H]3CC[C@@]21C)C(C)C
REMARK SMILES IDX 8 1 9 2 10 3 11 4 37 5 36 6 35 7 34 8 12 9 13 10 14 11 15 12
REMARK SMILES IDX 32 13 31 14 30 15 17 16 16 17 33 18 38 19 6 20 7 21 5 22
REMARK SMILES IDX 4 23 3 24 2 25 1 26 39 27 40 28 41 29 18 30 19 31 28 32
REMARK SMILES IDX 20 33 26 34 21 35 24 36 29 37 27 39 22 41 23 42 25 44
REMARK H PARENT 29 38 27 40 23 43 25 45
REMARK Flexibility Score: inf
ROOT
ATOM      1  C   UNL     1      -0.528   2.786   5.874  1.00  0.00    -0.002 C 
ATOM      2  C   UNL     1       0.040   3.383   4.586  1.00  0.00     0.005 C 
ATOM      3  C   UNL     1      -0.260   2.373   3.487  1.00  0.00     0.005 C 
ATOM      4  C   UNL     1      -1.394   1.451   4.000  1.00  0.00    -0.001 C 
ATOM      5  C   UNL     1      -1.806   2.006   5.407  1.00  0.00    -0.026 C 
ATOM      6  C   UNL     1      -3.039   2.933   5.201  1.00  0.00     0.007 C 
ATOM      7  C   UNL     1      -4.257   2.221   4.568  1.00  0.00     0.005 C 
ATOM      8  C   UNL     1      -3.909   0.961   3.724  1.00  0.00     0.003 C 
ATOM      9  C   UNL     1      -2.568   1.170   2.978  1.00  0.00     0.000 C 
ATOM     10  C   UNL     1      -2.785   2.214   1.853  1.00  0.00     0.031 C 
ATOM     11  C   UNL     1      -3.998   1.921   1.005  1.00  0.00    -0.027 C 
ATOM     12  C   UNL     1      -5.017   1.124   1.397  1.00  0.00    -0.065 C 
ATOM     13  C   UNL     1      -5.059   0.446   2.762  1.00  0.00    -0.008 C 
ATOM     14  C   UNL     1      -4.883  -1.097   2.544  1.00  0.00     0.014 C 
ATOM     15  C   UNL     1      -5.291  -1.640   1.145  1.00  0.00     0.033 C 
ATOM     16  C   UNL     1      -6.420  -0.820   0.487  1.00  0.00     0.125 C 
ATOM     17  C   UNL     1      -6.005   0.669   0.341  1.00  0.00     0.063 C 
ATOM     18  C   UNL     1      -6.452   0.707   3.432  1.00  0.00     0.016 C 
ATOM     19  C   UNL     1      -2.127   0.860   6.433  1.00  0.00     0.012 C 
ENDROOT
BRANCH   1  20
ATOM     20  C   UNL     1      -0.671   3.864   7.014  1.00  0.00    -0.011 C 
ATOM     21  C   UNL     1      -1.355   3.302   8.279  1.00  0.00     0.008 C 
BRANCH  20  22
ATOM     22  C   UNL     1       0.740   4.402   7.425  1.00  0.00     0.004 C 
BRANCH  22  23
ATOM     23  C   UNL     1       0.845   5.947   7.475  1.00  0.00     0.004 C 
BRANCH  23  24
ATOM     24  C   UNL     1       0.622   6.555   8.889  1.00  0.00    -0.009 C 
BRANCH  24  25
ATOM     25  C   UNL     1       1.629   6.040   9.975  1.00  0.00     0.000 C 
ATOM     26  C   UNL     1       3.077   5.826   9.511  1.00  0.00     0.004 C 
ENDBRANCH  24  25
BRANCH  24  27
ATOM     27  C   UNL     1       0.498   8.115   8.831  1.00  0.00    -0.014 C 
ATOM     28  C   UNL     1       1.830   8.841   8.539  1.00  0.00     0.007 C 
ATOM     29  C   UNL     1      -0.158   8.688  10.094  1.00  0.00     0.007 C 
ENDBRANCH  24  27
ENDBRANCH  23  24
ENDBRANCH  22  23
ENDBRANCH  20  22
ENDBRANCH   1  20
BRANCH  16  30
ATOM     30  O   UNL     1      -6.646  -1.355  -0.815  1.00  0.00    -0.346 OA
BRANCH  30  31
ATOM     31  C   UNL     1      -7.896  -2.019  -0.959  1.00  0.00     0.282 C 
ATOM     32  C   UNL     1      -8.994  -1.063  -1.483  1.00  0.00     0.202 C 
ATOM     33  O   UNL     1      -8.215  -2.824   0.176  1.00  0.00    -0.341 OA
ATOM     34  C   UNL     1     -10.350  -1.818  -1.581  1.00  0.00     0.179 C 
ATOM     35  C   UNL     1      -9.506  -2.576   0.708  1.00  0.00     0.178 C 
ATOM     36  C   UNL     1     -10.593  -2.771  -0.381  1.00  0.00     0.177 C 
BRANCH  32  37
ATOM     37  O   UNL     1      -9.107   0.075  -0.653  1.00  0.00    -0.385 OA
ATOM     38  H   UNL     1      -8.669   0.825  -1.143  1.00  0.00     0.211 HD
ENDBRANCH  32  37
BRANCH  34  39
ATOM     39  O   UNL     1     -11.428  -0.919  -1.749  1.00  0.00    -0.387 OA
ATOM     40  H   UNL     1     -11.513  -0.406  -0.902  1.00  0.00     0.211 HD
ENDBRANCH  34  39
BRANCH  35  41
ATOM     41  C   UNL     1      -9.740  -3.499   1.911  1.00  0.00     0.191 C 
BRANCH  41  42
ATOM     42  O   UNL     1      -8.807  -3.206   2.920  1.00  0.00    -0.394 OA
ATOM     43  H   UNL     1      -9.015  -3.833   3.665  1.00  0.00     0.210 HD
ENDBRANCH  41  42
ENDBRANCH  35  41
BRANCH  36  44
ATOM     44  O   UNL     1     -10.650  -4.112  -0.815  1.00  0.00    -0.387 OA
ATOM     45  H   UNL     1      -9.778  -4.327  -1.250  1.00  0.00     0.211 HD
ENDBRANCH  36  44
ENDBRANCH  30  31
ENDBRANCH  16  30
TORSDOF 13
