REMARK SMILES CC(C)C[C@@H](NC(=S)Nc1ccccc1)C(=O)N[C@H](CO)CCO
REMARK SMILES IDX 16 1 17 2 18 3 5 5 4 6 2 7 1 8 3 9 6 10 7 12 8 13 9 14 10 16
REMARK SMILES IDX 11 17 15 18 12 19 14 20 13 21 19 22 20 23 21 24 22 26 23 27
REMARK SMILES IDX 24 28
REMARK H PARENT 18 4 6 11 9 15 21 25 24 29
REMARK Flexibility Score: inf
ROOT
ATOM      1  C   UNL     1      -1.323   0.167   0.902  1.00  0.00     0.242 C 
ATOM      2  O   UNL     1      -2.196   0.646   1.677  1.00  0.00    -0.273 OA
ATOM      3  N   UNL     1      -1.622  -0.998   0.116  1.00  0.00    -0.349 N 
ATOM      4  H   UNL     1      -0.846  -1.439  -0.427  1.00  0.00     0.163 HD
ENDROOT
BRANCH   1   5
ATOM      5  C   UNL     1       0.049   0.792   0.840  1.00  0.00     0.171 C 
BRANCH   5   6
ATOM      6  C   UNL     1      -0.021   2.319   0.591  1.00  0.00     0.038 C 
BRANCH   6   7
ATOM      7  C   UNL     1      -0.135   2.707  -0.903  1.00  0.00    -0.015 C 
ATOM      8  C   UNL     1      -1.462   2.250  -1.527  1.00  0.00     0.007 C 
ATOM      9  C   UNL     1       0.017   4.225  -1.061  1.00  0.00     0.007 C 
ENDBRANCH   6   7
ENDBRANCH   5   6
BRANCH   5  10
ATOM     10  N   UNL     1       0.748   0.530   2.101  1.00  0.00    -0.351 N 
ATOM     11  H   UNL     1       0.218   0.636   2.998  1.00  0.00     0.163 HD
BRANCH  10  12
ATOM     12  C   UNL     1       2.146   0.209   2.170  1.00  0.00     0.171 C 
ATOM     13  S   UNL     1       2.804  -0.151   3.630  1.00  0.00    -0.041 S 
BRANCH  12  14
ATOM     14  N   UNL     1       2.997   0.404   1.028  1.00  0.00    -0.333 N 
ATOM     15  H   UNL     1       2.791   1.210   0.396  1.00  0.00     0.169 HD
BRANCH  14  16
ATOM     16  C   UNL     1       4.143  -0.411   0.728  1.00  0.00     0.040 A 
ATOM     17  C   UNL     1       5.203   0.134  -0.015  1.00  0.00     0.026 A 
ATOM     18  C   UNL     1       4.200  -1.764   1.111  1.00  0.00     0.026 A 
ATOM     19  C   UNL     1       6.315  -0.649  -0.339  1.00  0.00     0.002 A 
ATOM     20  C   UNL     1       5.314  -2.544   0.784  1.00  0.00     0.002 A 
ATOM     21  C   UNL     1       6.372  -1.985   0.063  1.00  0.00     0.000 A 
ENDBRANCH  14  16
ENDBRANCH  12  14
ENDBRANCH  10  12
ENDBRANCH   5  10
ENDBRANCH   1   5
BRANCH   3  22
ATOM     22  C   UNL     1      -2.963  -1.593   0.075  1.00  0.00     0.109 C 
BRANCH  22  23
ATOM     23  C   UNL     1      -2.887  -3.047  -0.437  1.00  0.00     0.181 C 
BRANCH  23  24
ATOM     24  O   UNL     1      -2.606  -3.095  -1.812  1.00  0.00    -0.394 OA
ATOM     25  H   UNL     1      -1.618  -3.111  -1.906  1.00  0.00     0.210 HD
ENDBRANCH  23  24
ENDBRANCH  22  23
BRANCH  22  26
ATOM     26  C   UNL     1      -3.900  -0.705  -0.779  1.00  0.00     0.055 C 
BRANCH  26  27
ATOM     27  C   UNL     1      -5.363  -1.163  -0.772  1.00  0.00     0.158 C 
BRANCH  27  28
ATOM     28  O   UNL     1      -5.859  -1.181   0.538  1.00  0.00    -0.396 OA
ATOM     29  H   UNL     1      -6.798  -1.496   0.472  1.00  0.00     0.210 HD
ENDBRANCH  27  28
ENDBRANCH  26  27
ENDBRANCH  22  26
ENDBRANCH   3  22
TORSDOF 13
