REMARK SMILES CC(C)C[C@@H](NC(=S)Nc1ccccc1)C(=O)N[C@@H](CO)CCO
REMARK SMILES IDX 16 1 17 2 18 3 5 5 4 6 2 7 1 8 3 9 6 10 7 12 8 13 9 14 10 16
REMARK SMILES IDX 11 17 15 18 12 19 14 20 13 21 19 22 20 23 21 24 22 26 23 27
REMARK SMILES IDX 24 28
REMARK H PARENT 18 4 6 11 9 15 21 25 24 29
REMARK Flexibility Score: inf
ROOT
ATOM      1  C   UNL     1      -0.194  -0.411  -1.339  1.00  0.00     0.242 C 
ATOM      2  O   UNL     1       0.081  -0.184  -2.549  1.00  0.00    -0.273 OA
ATOM      3  N   UNL     1      -0.673   0.646  -0.493  1.00  0.00    -0.349 N 
ATOM      4  H   UNL     1      -0.836   0.430   0.517  1.00  0.00     0.163 HD
ENDROOT
BRANCH   1   5
ATOM      5  C   UNL     1       0.017  -1.795  -0.779  1.00  0.00     0.171 C 
BRANCH   5   6
ATOM      6  C   UNL     1      -0.862  -2.818  -1.542  1.00  0.00     0.038 C 
BRANCH   6   7
ATOM      7  C   UNL     1      -1.157  -4.137  -0.784  1.00  0.00    -0.015 C 
ATOM      8  C   UNL     1       0.112  -4.893  -0.374  1.00  0.00     0.007 C 
ATOM      9  C   UNL     1      -2.081  -3.922   0.424  1.00  0.00     0.007 C 
ENDBRANCH   6   7
ENDBRANCH   5   6
BRANCH   5  10
ATOM     10  N   UNL     1       1.442  -2.134  -0.880  1.00  0.00    -0.351 N 
ATOM     11  H   UNL     1       1.764  -2.776  -1.640  1.00  0.00     0.163 HD
BRANCH  10  12
ATOM     12  C   UNL     1       2.438  -1.454  -0.103  1.00  0.00     0.171 C 
ATOM     13  S   UNL     1       4.023  -1.649  -0.470  1.00  0.00    -0.041 S 
BRANCH  12  14
ATOM     14  N   UNL     1       2.065  -0.685   1.047  1.00  0.00    -0.333 N 
ATOM     15  H   UNL     1       1.456  -1.144   1.762  1.00  0.00     0.169 HD
BRANCH  14  16
ATOM     16  C   UNL     1       2.398   0.704   1.215  1.00  0.00     0.040 A 
ATOM     17  C   UNL     1       2.285   1.291   2.484  1.00  0.00     0.026 A 
ATOM     18  C   UNL     1       2.765   1.508   0.120  1.00  0.00     0.026 A 
ATOM     19  C   UNL     1       2.546   2.652   2.662  1.00  0.00     0.002 A 
ATOM     20  C   UNL     1       3.018   2.872   0.299  1.00  0.00     0.002 A 
ATOM     21  C   UNL     1       2.908   3.442   1.570  1.00  0.00     0.000 A 
ENDBRANCH  14  16
ENDBRANCH  12  14
ENDBRANCH  10  12
ENDBRANCH   5  10
ENDBRANCH   1   5
BRANCH   3  22
ATOM     22  C   UNL     1      -0.789   2.034  -0.962  1.00  0.00     0.109 C 
BRANCH  22  23
ATOM     23  C   UNL     1      -1.976   2.191  -1.931  1.00  0.00     0.181 C 
BRANCH  23  24
ATOM     24  O   UNL     1      -3.125   1.577  -1.413  1.00  0.00    -0.394 OA
ATOM     25  H   UNL     1      -3.836   1.708  -2.092  1.00  0.00     0.210 HD
ENDBRANCH  23  24
ENDBRANCH  22  23
BRANCH  22  26
ATOM     26  C   UNL     1      -0.838   3.027   0.223  1.00  0.00     0.055 C 
BRANCH  26  27
ATOM     27  C   UNL     1      -2.130   2.987   1.048  1.00  0.00     0.158 C 
BRANCH  27  28
ATOM     28  O   UNL     1      -1.972   3.780   2.191  1.00  0.00    -0.396 OA
ATOM     29  H   UNL     1      -2.829   3.716   2.690  1.00  0.00     0.210 HD
ENDBRANCH  27  28
ENDBRANCH  26  27
ENDBRANCH  22  26
ENDBRANCH   3  22
TORSDOF 13
