REMARK SMILES O=C([O-])C=Cc1ccc(O)cc1
REMARK SMILES IDX 6 1 7 2 12 3 8 4 11 5 9 6 5 7 4 8 2 9 1 10 3 11 10 12
REMARK H PARENT 10 13
REMARK Flexibility Score: inf
ROOT
ATOM      1  C   UNL     1       0.073  -0.295  -0.042  1.00  0.00    -0.025 A 
ATOM      2  C   UNL     1      -0.272   1.061   0.152  1.00  0.00     0.012 A 
ATOM      3  C   UNL     1      -0.948  -1.262   0.006  1.00  0.00     0.012 A 
ATOM      4  C   UNL     1      -1.602   1.427   0.386  1.00  0.00     0.047 A 
ATOM      5  C   UNL     1      -2.275  -0.890   0.240  1.00  0.00     0.047 A 
ATOM      6  C   UNL     1      -2.606   0.453   0.431  1.00  0.00     0.115 A 
ENDROOT
BRANCH   1   7
ATOM      7  C   UNL     1       1.465  -0.756  -0.295  1.00  0.00     0.010 C 
ATOM      8  C   UNL     1       2.537   0.046  -0.368  1.00  0.00     0.025 C 
BRANCH   8   9
ATOM      9  C   UNL     1       3.887  -0.483  -0.623  1.00  0.00     0.064 C 
ATOM     10  O   UNL     1       4.863   0.309  -0.683  1.00  0.00    -0.545 OA
ATOM     11  O   UNL     1       4.103  -1.845  -0.798  1.00  0.00    -0.545 OA
ENDBRANCH   8   9
ENDBRANCH   1   7
BRANCH   6  12
ATOM     12  O   UNL     1      -3.932   0.809   0.663  1.00  0.00    -0.508 OA
ATOM     13  H   UNL     1      -4.204   1.774   0.805  1.00  0.00     0.293 HD
ENDBRANCH   6  12
TORSDOF 3
