REMARK SMILES C[C@@H]1[C@H](C)CC[C@@]2(C(=O)[O-])CC[C@]3(C)C(=CC[C@H]4[C@@]5(C)CC[C@@H](O)C(C)(C)[C@H]5CC[C@@]43C)[C@H]12
REMARK SMILES IDX 7 1 6 2 11 3 33 4 5 5 12 6 15 7 2 8 3 9 13 10 16 11 1 12
REMARK SMILES IDX 4 13 14 14 31 15 17 16 18 17 30 18 32 19 19 20 29 21 28 22
REMARK SMILES IDX 21 23 20 24 25 25 22 26 23 27 26 28 27 29 8 30 9 31 10 32
REMARK SMILES IDX 24 33
REMARK H PARENT 24 34
REMARK Flexibility Score: inf
ROOT
ATOM      1  C   UNL     1      -3.210  -1.550  -0.436  1.00  0.00     0.017 C 
ATOM      2  C   UNL     1      -3.572  -1.483  -1.947  1.00  0.00     0.014 C 
ATOM      3  C   UNL     1      -2.115  -2.650  -0.224  1.00  0.00     0.014 C 
ATOM      4  C   UNL     1      -2.662  -0.129  -0.063  1.00  0.00     0.030 C 
ATOM      5  C   UNL     1      -4.601  -0.385  -2.264  1.00  0.00     0.004 C 
ATOM      6  C   UNL     1      -0.731  -2.107   0.148  1.00  0.00     0.013 C 
ATOM      7  C   UNL     1      -1.804  -0.052   1.212  1.00  0.00    -0.063 C 
ATOM      8  C   UNL     1      -3.711   1.003  -0.295  1.00  0.00    -0.003 C 
ATOM      9  C   UNL     1      -4.144   1.016  -1.785  1.00  0.00    -0.011 C 
ATOM     10  C   UNL     1      -0.746  -1.184   1.434  1.00  0.00    -0.006 C 
ATOM     11  C   UNL     1      -1.479   1.196   1.640  1.00  0.00    -0.027 C 
ATOM     12  C   UNL     1      -4.881   0.977   0.706  1.00  0.00     0.008 C 
ATOM     13  C   UNL     1      -5.222   2.073  -2.076  1.00  0.00     0.008 C 
ATOM     14  C   UNL     1      -1.229  -2.066   2.637  1.00  0.00     0.017 C 
ATOM     15  C   UNL     1       0.720  -0.539   1.696  1.00  0.00    -0.020 C 
ATOM     16  C   UNL     1      -0.143   1.804   1.240  1.00  0.00     0.032 C 
ATOM     17  C   UNL     1       0.834   0.697   0.748  1.00  0.00     0.006 C 
ATOM     18  C   UNL     1       1.889  -1.530   1.446  1.00  0.00     0.008 C 
ATOM     19  C   UNL     1       0.863  -0.055   3.189  1.00  0.00     0.012 C 
ATOM     20  C   UNL     1       2.277   1.098   0.204  1.00  0.00    -0.025 C 
ATOM     21  C   UNL     1       2.527  -1.512   0.037  1.00  0.00     0.005 C 
ATOM     22  C   UNL     1       2.792  -0.123  -0.665  1.00  0.00     0.003 C 
ATOM     23  C   UNL     1       3.331   1.429   1.303  1.00  0.00     0.010 C 
ATOM     24  C   UNL     1       2.053   2.380  -0.666  1.00  0.00     0.012 C 
ATOM     25  C   UNL     1       4.275   0.012  -1.230  1.00  0.00    -0.006 C 
ATOM     26  C   UNL     1       4.760   1.601   0.746  1.00  0.00     0.033 C 
ATOM     27  C   UNL     1       5.256   0.377  -0.070  1.00  0.00     0.120 C 
ATOM     28  C   UNL     1       4.707  -1.317  -1.946  1.00  0.00     0.014 C 
ATOM     29  C   UNL     1       4.389   1.088  -2.366  1.00  0.00     0.014 C 
ENDROOT
BRANCH   1  30
ATOM     30  C   UNL     1      -4.433  -1.974   0.378  1.00  0.00     0.048 C 
ATOM     31  O   UNL     1      -4.399  -1.983   1.640  1.00  0.00    -0.550 OA
ATOM     32  O   UNL     1      -5.547  -2.524  -0.250  1.00  0.00    -0.550 OA
ENDBRANCH   1  30
BRANCH  27  33
ATOM     33  O   UNL     1       5.423  -0.723   0.797  1.00  0.00    -0.393 OA
ATOM     34  H   UNL     1       6.303  -0.620   1.246  1.00  0.00     0.210 HD
ENDBRANCH  27  33
TORSDOF 2
