REMARK SMILES Oc1cc(O)c2cc(O)c(-c3cc(O)c(O)c(O)c3)[o+]c2c1.[Cl-]
REMARK SMILES IDX 10 1 20 2 21 3 22 4 2 5 3 6 4 7 6 8 7 9 8 10 11 11 12 12
REMARK SMILES IDX 13 13 19 14 15 15 17 16 14 17 16 19 18 21 9 23 1 25 5 27
REMARK H PARENT 14 18 16 20 18 22 9 24 1 26 5 28
REMARK Flexibility Score: inf
ROOT
ATOM      1  C   UNL     1      -0.241  -0.166   0.208  1.00  0.00     0.402 A 
ATOM      2  O   UNL     1       0.625   0.507  -0.547  1.00  0.00    -0.202 OA
ATOM      3  C   UNL     1       1.942   0.424  -0.397  1.00  0.00     0.368 A 
ATOM      4  C   UNL     1       2.771   1.167  -1.241  1.00  0.00     0.162 A 
ATOM      5  C   UNL     1       4.158   1.098  -1.108  1.00  0.00     0.128 A 
ATOM      6  C   UNL     1       4.724   0.278  -0.125  1.00  0.00     0.093 A 
ATOM      7  C   UNL     1       3.915  -0.478   0.733  1.00  0.00     0.136 A 
ATOM      8  C   UNL     1       2.504  -0.407   0.603  1.00  0.00     0.125 A 
ATOM      9  C   UNL     1       1.616  -1.118   1.427  1.00  0.00     0.078 A 
ATOM     10  C   UNL     1       0.235  -0.994   1.241  1.00  0.00     0.223 A 
ENDROOT
BRANCH   1  11
ATOM     11  C   UNL     1      -1.686   0.003  -0.064  1.00  0.00     0.091 A 
ATOM     12  C   UNL     1      -2.184   1.276  -0.385  1.00  0.00     0.068 A 
ATOM     13  C   UNL     1      -3.545   1.459  -0.666  1.00  0.00     0.162 A 
ATOM     14  C   UNL     1      -2.564  -1.094  -0.063  1.00  0.00     0.068 A 
ATOM     15  C   UNL     1      -4.419   0.364  -0.643  1.00  0.00     0.200 A 
ATOM     16  C   UNL     1      -3.926  -0.917  -0.345  1.00  0.00     0.162 A 
BRANCH  13  17
ATOM     17  O   UNL     1      -4.036   2.727  -0.971  1.00  0.00    -0.504 OA
ATOM     18  H   UNL     1      -3.430   3.539  -0.996  1.00  0.00     0.293 HD
ENDBRANCH  13  17
BRANCH  15  19
ATOM     19  O   UNL     1      -5.771   0.566  -0.923  1.00  0.00    -0.502 OA
ATOM     20  H   UNL     1      -6.441  -0.193  -0.919  1.00  0.00     0.293 HD
ENDBRANCH  15  19
BRANCH  16  21
ATOM     21  O   UNL     1      -4.790  -2.011  -0.335  1.00  0.00    -0.504 OA
ATOM     22  H   UNL     1      -4.461  -2.946  -0.124  1.00  0.00     0.293 HD
ENDBRANCH  16  21
ENDBRANCH   1  11
BRANCH  10  23
ATOM     23  O   UNL     1      -0.648  -1.660   2.091  1.00  0.00    -0.500 OA
ATOM     24  H   UNL     1      -0.317  -2.252   2.844  1.00  0.00     0.294 HD
ENDBRANCH  10  23
BRANCH   5  25
ATOM     25  O   UNL     1       4.968   1.847  -1.959  1.00  0.00    -0.507 OA
ATOM     26  H   UNL     1       5.978   1.819  -1.890  1.00  0.00     0.293 HD
ENDBRANCH   5  25
BRANCH   7  27
ATOM     27  O   UNL     1       4.556  -1.274   1.687  1.00  0.00    -0.507 OA
ATOM     28  H   UNL     1       4.078  -1.868   2.348  1.00  0.00     0.293 HD
ENDBRANCH   7  27
TORSDOF 7
