REMARK SMILES Oc1cc(O)c2cc(O)c(-c3ccc(O)c(O)c3)[o+]c2c1.[Cl-]
REMARK SMILES IDX 10 1 19 2 20 3 21 4 2 5 3 6 4 7 6 8 7 9 8 10 11 11 12 12
REMARK SMILES IDX 13 13 14 14 18 15 16 16 15 17 17 19 9 21 1 23 5 25
REMARK H PARENT 15 18 17 20 9 22 1 24 5 26
REMARK Flexibility Score: inf
ROOT
ATOM      1  C   UNL     1       0.329   0.234  -0.118  1.00  0.00     0.402 A 
ATOM      2  O   UNL     1      -0.611  -0.702  -0.225  1.00  0.00    -0.202 OA
ATOM      3  C   UNL     1      -1.908  -0.454  -0.072  1.00  0.00     0.368 A 
ATOM      4  C   UNL     1      -2.821  -1.504  -0.201  1.00  0.00     0.162 A 
ATOM      5  C   UNL     1      -4.190  -1.272  -0.043  1.00  0.00     0.128 A 
ATOM      6  C   UNL     1      -4.648   0.015   0.247  1.00  0.00     0.093 A 
ATOM      7  C   UNL     1      -3.754   1.084   0.382  1.00  0.00     0.136 A 
ATOM      8  C   UNL     1      -2.363   0.854   0.219  1.00  0.00     0.125 A 
ATOM      9  C   UNL     1      -1.396   1.867   0.323  1.00  0.00     0.078 A 
ATOM     10  C   UNL     1      -0.043   1.565   0.144  1.00  0.00     0.223 A 
ENDROOT
BRANCH   1  11
ATOM     11  C   UNL     1       1.742  -0.170  -0.300  1.00  0.00     0.087 A 
ATOM     12  C   UNL     1       2.071  -1.102  -1.296  1.00  0.00     0.022 A 
ATOM     13  C   UNL     1       3.395  -1.512  -1.473  1.00  0.00     0.051 A 
ATOM     14  C   UNL     1       4.406  -1.008  -0.646  1.00  0.00     0.157 A 
ATOM     15  C   UNL     1       2.758   0.319   0.542  1.00  0.00     0.068 A 
ATOM     16  C   UNL     1       4.087  -0.094   0.366  1.00  0.00     0.158 A 
BRANCH  14  17
ATOM     17  O   UNL     1       5.728  -1.413  -0.820  1.00  0.00    -0.504 OA
ATOM     18  H   UNL     1       5.989  -2.074  -1.542  1.00  0.00     0.293 HD
ENDBRANCH  14  17
BRANCH  16  19
ATOM     19  O   UNL     1       5.093   0.396   1.197  1.00  0.00    -0.504 OA
ATOM     20  H   UNL     1       4.894   1.057   1.938  1.00  0.00     0.293 HD
ENDBRANCH  16  19
ENDBRANCH   1  11
BRANCH  10  21
ATOM     21  O   UNL     1       0.914   2.580   0.198  1.00  0.00    -0.500 OA
ATOM     22  H   UNL     1       0.658   3.544   0.377  1.00  0.00     0.294 HD
ENDBRANCH  10  21
BRANCH   5  23
ATOM     23  O   UNL     1      -5.106  -2.315  -0.170  1.00  0.00    -0.507 OA
ATOM     24  H   UNL     1      -4.807  -3.260  -0.380  1.00  0.00     0.293 HD
ENDBRANCH   5  23
BRANCH   7  25
ATOM     25  O   UNL     1      -4.293   2.340   0.676  1.00  0.00    -0.507 OA
ATOM     26  H   UNL     1      -3.746   3.179   0.807  1.00  0.00     0.293 HD
ENDBRANCH   7  25
TORSDOF 6
