REMARK SMILES O=C([O-])C=Cc1ccc(O)c(O)c1
REMARK SMILES IDX 6 1 13 2 7 3 11 4 8 5 9 6 5 7 4 8 2 9 1 10 3 11 12 12 10 14
REMARK H PARENT 12 13 10 15
REMARK Flexibility Score: inf
ROOT
ATOM      1  C   UNL     1       0.349  -0.715  -0.230  1.00  0.00    -0.022 A 
ATOM      2  C   UNL     1       0.065   0.232   0.770  1.00  0.00     0.058 A 
ATOM      3  C   UNL     1      -0.709  -1.352  -0.892  1.00  0.00     0.012 A 
ATOM      4  C   UNL     1      -1.263   0.575   1.066  1.00  0.00     0.157 A 
ATOM      5  C   UNL     1      -2.032  -1.011  -0.600  1.00  0.00     0.051 A 
ATOM      6  C   UNL     1      -2.316  -0.047   0.373  1.00  0.00     0.157 A 
ENDROOT
BRANCH   1   7
ATOM      7  C   UNL     1       1.738  -1.128  -0.519  1.00  0.00     0.010 C 
ATOM      8  C   UNL     1       2.767  -0.296  -0.744  1.00  0.00     0.025 C 
BRANCH   8   9
ATOM      9  C   UNL     1       2.671   1.166  -0.920  1.00  0.00     0.064 C 
ATOM     10  O   UNL     1       1.577   1.726  -1.196  1.00  0.00    -0.545 OA
ATOM     11  O   UNL     1       3.825   1.934  -0.846  1.00  0.00    -0.545 OA
ENDBRANCH   8   9
ENDBRANCH   1   7
BRANCH   4  12
ATOM     12  O   UNL     1      -1.538   1.527   2.047  1.00  0.00    -0.504 OA
ATOM     13  H   UNL     1      -0.797   1.989   2.560  1.00  0.00     0.293 HD
ENDBRANCH   4  12
BRANCH   6  14
ATOM     14  O   UNL     1      -3.646   0.275   0.641  1.00  0.00    -0.504 OA
ATOM     15  H   UNL     1      -3.902   0.965   1.337  1.00  0.00     0.293 HD
ENDBRANCH   6  14
TORSDOF 4
