REMARK SMILES CC1(C)[C@H]2CC[C@](C)(C2)[C@H]1O
REMARK SMILES IDX 1 1 2 2 4 3 5 4 6 5 7 6 9 7 10 8 8 9 3 10 11 11
REMARK H PARENT 11 12
REMARK Flexibility Score: inf
ROOT
ATOM      1  C   UNL     1       2.355   0.785   0.510  1.00  0.00     0.014 C 
ATOM      2  C   UNL     1       1.205  -0.156   0.072  1.00  0.00    -0.006 C 
ATOM      3  C   UNL     1       0.499   0.415  -1.206  1.00  0.00    -0.002 C 
ATOM      4  C   UNL     1      -0.468  -0.618  -1.820  1.00  0.00     0.005 C 
ATOM      5  C   UNL     1      -1.582  -0.712  -0.765  1.00  0.00     0.010 C 
ATOM      6  C   UNL     1      -1.165   0.364   0.267  1.00  0.00    -0.006 C 
ATOM      7  C   UNL     1      -0.503   1.395  -0.621  1.00  0.00     0.013 C 
ATOM      8  C   UNL     1       0.037  -0.137   1.113  1.00  0.00     0.126 C 
ATOM      9  C   UNL     1      -2.330   0.915   1.095  1.00  0.00     0.014 C 
ATOM     10  C   UNL     1       1.821  -1.563  -0.143  1.00  0.00     0.014 C 
ENDROOT
BRANCH   8  11
ATOM     11  O   UNL     1      -0.208  -1.399   1.683  1.00  0.00    -0.392 OA
ATOM     12  H   UNL     1      -0.823  -1.252   2.448  1.00  0.00     0.211 HD
ENDBRANCH   8  11
TORSDOF 1
