REMARK SMILES C=C[C@](C)(CCC=C(C)C)OC(C)=O
REMARK SMILES IDX 3 1 4 2 5 3 6 4 7 5 9 6 8 7 10 8 2 9 1 10 11 11 12 12 14 13
REMARK SMILES IDX 13 14
REMARK H PARENT
REMARK Flexibility Score: inf
ROOT
ATOM      1  C   UNL     1       1.358  -0.766  -0.492  1.00  0.00     0.127 C 
ATOM      2  C   UNL     1       1.192  -1.770   0.674  1.00  0.00     0.061 C 
ENDROOT
BRANCH   1   3
ATOM      3  C   UNL     1      -0.011  -0.167  -0.928  1.00  0.00     0.057 C 
BRANCH   3   4
ATOM      4  C   UNL     1      -0.650   0.818   0.065  1.00  0.00     0.032 C 
BRANCH   4   5
ATOM      5  C   UNL     1      -2.016   1.243  -0.416  1.00  0.00    -0.028 C 
ATOM      6  C   UNL     1      -3.183  -0.657   0.726  1.00  0.00     0.039 C 
ATOM      7  C   UNL     1      -3.159   0.569  -0.153  1.00  0.00    -0.080 C 
ATOM      8  C   UNL     1      -4.468   1.068  -0.708  1.00  0.00     0.039 C 
ENDBRANCH   4   5
ENDBRANCH   3   4
ENDBRANCH   1   3
BRANCH   1   9
ATOM      9  C   UNL     1       1.920  -1.537  -1.675  1.00  0.00     0.013 C 
ATOM     10  C   UNL     1       3.174  -2.006  -1.689  1.00  0.00     0.008 C 
ENDBRANCH   1   9
BRANCH   1  11
ATOM     11  O   UNL     1       2.301   0.280  -0.192  1.00  0.00    -0.455 OA
BRANCH  11  12
ATOM     12  C   UNL     1       2.452   0.988   1.011  1.00  0.00     0.303 C 
ATOM     13  O   UNL     1       1.729   0.751   2.014  1.00  0.00    -0.253 OA
ATOM     14  C   UNL     1       3.466   2.078   1.085  1.00  0.00     0.139 C 
ENDBRANCH  11  12
ENDBRANCH   1  11
TORSDOF 6
