REMARK SMILES CC1(C)CC[C@]2(C)CC[C@]3(C)C(=CC[C@H]4[C@@]5(C)CC[C@H](O)C(C)(C)[C@H]5CC[C@@]43C)[C@@H]2C1
REMARK SMILES IDX 1 1 2 2 4 3 5 4 6 5 8 6 9 7 10 8 12 9 13 10 14 11 15 12
REMARK SMILES IDX 28 13 27 14 26 15 25 16 16 17 18 18 19 19 20 20 22 21 23 22
REMARK SMILES IDX 24 23 17 24 29 25 30 26 31 27 11 28 7 29 3 30 21 31
REMARK H PARENT 21 32
REMARK Flexibility Score: inf
ROOT
ATOM      1  C   UNL     1       6.364   0.254  -1.704  1.00  0.00     0.011 C 
ATOM      2  C   UNL     1       5.545   0.548  -0.424  1.00  0.00    -0.035 C 
ATOM      3  C   UNL     1       5.899  -0.494   0.690  1.00  0.00     0.007 C 
ATOM      4  C   UNL     1       4.948  -1.708   0.691  1.00  0.00     0.008 C 
ATOM      5  C   UNL     1       3.462  -1.319   1.018  1.00  0.00    -0.026 C 
ATOM      6  C   UNL     1       2.522  -2.448   0.470  1.00  0.00     0.008 C 
ATOM      7  C   UNL     1       1.031  -2.058   0.271  1.00  0.00     0.012 C 
ATOM      8  C   UNL     1       0.803  -0.749  -0.567  1.00  0.00    -0.006 C 
ATOM      9  C   UNL     1       1.635   0.324   0.168  1.00  0.00    -0.064 C 
ATOM     10  C   UNL     1       1.050   1.336   0.863  1.00  0.00    -0.027 C 
ATOM     11  C   UNL     1      -0.432   1.538   1.030  1.00  0.00     0.032 C 
ATOM     12  C   UNL     1      -1.261   0.275   0.698  1.00  0.00     0.006 C 
ATOM     13  C   UNL     1      -0.771  -0.312  -0.667  1.00  0.00    -0.020 C 
ATOM     14  C   UNL     1      -1.659  -1.555  -0.943  1.00  0.00     0.008 C 
ATOM     15  C   UNL     1      -3.103  -1.187  -1.258  1.00  0.00     0.005 C 
ATOM     16  C   UNL     1      -3.802  -0.317  -0.171  1.00  0.00     0.003 C 
ATOM     17  C   UNL     1      -2.869   0.393   0.943  1.00  0.00    -0.025 C 
ATOM     18  C   UNL     1      -3.312   1.883   1.190  1.00  0.00     0.010 C 
ATOM     19  C   UNL     1      -4.841   2.141   1.295  1.00  0.00     0.033 C 
ATOM     20  C   UNL     1      -5.747   1.264   0.399  1.00  0.00     0.120 C 
ATOM     21  C   UNL     1      -4.995   0.551  -0.770  1.00  0.00    -0.006 C 
ATOM     22  C   UNL     1      -4.537   1.617  -1.820  1.00  0.00     0.014 C 
ATOM     23  C   UNL     1      -6.019  -0.383  -1.506  1.00  0.00     0.014 C 
ATOM     24  C   UNL     1      -3.138  -0.335   2.302  1.00  0.00     0.012 C 
ATOM     25  C   UNL     1      -0.994   0.807  -1.772  1.00  0.00     0.012 C 
ATOM     26  C   UNL     1       3.139   0.106   0.421  1.00  0.00     0.022 C 
ATOM     27  C   UNL     1       4.020   0.503  -0.786  1.00  0.00     0.015 C 
ATOM     28  C   UNL     1       1.372  -1.001  -2.010  1.00  0.00     0.017 C 
ATOM     29  C   UNL     1       3.281  -1.252   2.562  1.00  0.00     0.012 C 
ATOM     30  C   UNL     1       5.936   1.965   0.066  1.00  0.00     0.011 C 
ENDROOT
BRANCH  20  31
ATOM     31  O   UNL     1      -6.413   0.327   1.213  1.00  0.00    -0.393 OA
ATOM     32  H   UNL     1      -7.348   0.264   0.889  1.00  0.00     0.210 HD
ENDBRANCH  20  31
TORSDOF 1
