REMARK SMILES CC(C)C[C@@H](NC(=S)Nc1ccccc1)C(=O)N[C@H](CO)CCO
REMARK SMILES IDX 16 1 17 2 18 3 5 5 4 6 2 7 1 8 3 9 6 10 7 12 8 13 9 14 10 16
REMARK SMILES IDX 11 17 15 18 12 19 14 20 13 21 19 22 20 23 21 24 22 26 23 27
REMARK SMILES IDX 24 28
REMARK H PARENT 18 4 6 11 9 15 21 25 24 29
REMARK Flexibility Score: inf
ROOT
ATOM      1  C   UNL     1       0.635   0.087  -0.539  1.00  0.00     0.242 C 
ATOM      2  O   UNL     1       0.882  -0.116  -1.760  1.00  0.00    -0.273 OA
ATOM      3  N   UNL     1       1.293  -0.693   0.470  1.00  0.00    -0.349 N 
ATOM      4  H   UNL     1       1.036  -0.531   1.470  1.00  0.00     0.163 HD
ENDROOT
BRANCH   1   5
ATOM      5  C   UNL     1      -0.333   1.171  -0.137  1.00  0.00     0.171 C 
BRANCH   5   6
ATOM      6  C   UNL     1       0.385   2.520   0.133  1.00  0.00     0.038 C 
BRANCH   6   7
ATOM      7  C   UNL     1       1.473   2.955  -0.888  1.00  0.00    -0.015 C 
ATOM      8  C   UNL     1       2.221   4.184  -0.353  1.00  0.00     0.007 C 
ATOM      9  C   UNL     1       0.897   3.271  -2.275  1.00  0.00     0.007 C 
ENDBRANCH   6   7
ENDBRANCH   5   6
BRANCH   5  10
ATOM     10  N   UNL     1      -1.415   1.311  -1.121  1.00  0.00    -0.351 N 
ATOM     11  H   UNL     1      -1.519   2.210  -1.641  1.00  0.00     0.163 HD
BRANCH  10  12
ATOM     12  C   UNL     1      -2.480   0.354  -1.253  1.00  0.00     0.171 C 
ATOM     13  S   UNL     1      -3.636   0.610  -2.391  1.00  0.00    -0.041 S 
BRANCH  12  14
ATOM     14  N   UNL     1      -2.472  -0.871  -0.499  1.00  0.00    -0.333 N 
ATOM     15  H   UNL     1      -1.559  -1.349  -0.339  1.00  0.00     0.169 HD
BRANCH  14  16
ATOM     16  C   UNL     1      -3.656  -1.517   0.000  1.00  0.00     0.040 A 
ATOM     17  C   UNL     1      -3.654  -2.907   0.195  1.00  0.00     0.026 A 
ATOM     18  C   UNL     1      -4.798  -0.776   0.359  1.00  0.00     0.026 A 
ATOM     19  C   UNL     1      -4.785  -3.552   0.704  1.00  0.00     0.002 A 
ATOM     20  C   UNL     1      -5.928  -1.425   0.868  1.00  0.00     0.002 A 
ATOM     21  C   UNL     1      -5.923  -2.812   1.036  1.00  0.00     0.000 A 
ENDBRANCH  14  16
ENDBRANCH  12  14
ENDBRANCH  10  12
ENDBRANCH   5  10
ENDBRANCH   1   5
BRANCH   3  22
ATOM     22  C   UNL     1       2.304  -1.704   0.144  1.00  0.00     0.109 C 
BRANCH  22  23
ATOM     23  C   UNL     1       2.388  -2.765   1.253  1.00  0.00     0.181 C 
BRANCH  23  24
ATOM     24  O   UNL     1       1.181  -3.474   1.317  1.00  0.00    -0.394 OA
ATOM     25  H   UNL     1       1.292  -4.143   2.042  1.00  0.00     0.210 HD
ENDBRANCH  23  24
ENDBRANCH  22  23
BRANCH  22  26
ATOM     26  C   UNL     1       3.670  -1.042  -0.152  1.00  0.00     0.055 C 
BRANCH  26  27
ATOM     27  C   UNL     1       4.327  -0.340   1.049  1.00  0.00     0.158 C 
BRANCH  27  28
ATOM     28  O   UNL     1       3.519   0.694   1.542  1.00  0.00    -0.396 OA
ATOM     29  H   UNL     1       3.624   1.458   0.918  1.00  0.00     0.210 HD
ENDBRANCH  27  28
ENDBRANCH  26  27
ENDBRANCH  22  26
ENDBRANCH   3  22
TORSDOF 13
