REMARK SMILES CC1(C)C(=O)[C@@]2(C)CC[C@@H]1C2
REMARK SMILES IDX 1 1 2 2 10 3 9 4 8 5 6 6 11 7 4 8 5 9 7 10 3 11
REMARK H PARENT
REMARK Flexibility Score: inf
ROOT
ATOM      1  C   UNL     1      -1.816   1.411  -0.711  1.00  0.00     0.020 C 
ATOM      2  C   UNL     1      -1.166   0.055  -0.356  1.00  0.00     0.027 C 
ATOM      3  C   UNL     1      -0.585  -0.020   1.102  1.00  0.00     0.003 C 
ATOM      4  C   UNL     1       0.289   1.220   1.420  1.00  0.00     0.005 C 
ATOM      5  C   UNL     1       1.516   1.028   0.500  1.00  0.00     0.015 C 
ATOM      6  C   UNL     1       1.238  -0.342  -0.149  1.00  0.00     0.027 C 
ATOM      7  C   UNL     1       0.518  -1.069   0.968  1.00  0.00     0.019 C 
ATOM      8  C   UNL     1       0.106  -0.163  -1.123  1.00  0.00     0.144 C 
ATOM      9  O   UNL     1       0.214  -0.124  -2.340  1.00  0.00    -0.298 OA
ATOM     10  C   UNL     1       2.467  -1.068  -0.700  1.00  0.00     0.020 C 
ATOM     11  C   UNL     1      -2.181  -1.077  -0.623  1.00  0.00     0.020 C 
ENDROOT
TORSDOF 0
