REMARK SMILES O=c1c(O[C@H]2O[C@H](CO)[C@H](O)[C@@H](O)[C@@H]2O)c(-c2ccc(O)c(O)c2)oc2cc(O)cc(O)c12
REMARK SMILES IDX 4 1 3 2 16 3 25 4 2 5 26 6 1 7 33 8 27 9 31 10 28 11 30 12
REMARK SMILES IDX 17 13 20 14 19 15 22 16 18 17 24 18 21 19 23 21 32 23 29 25
REMARK SMILES IDX 5 27 14 28 6 29 12 30 7 31 10 32 15 33 13 35 8 37 9 38 11 40
REMARK H PARENT 21 20 23 22 32 24 29 26 15 34 13 36 9 39 11 41
REMARK Flexibility Score: inf
ROOT
ATOM      1  O   UNL     1       0.553   0.356  -1.205  1.00  0.00    -0.454 OA
ENDROOT
BRANCH   1   2
ATOM      2  C   UNL     1      -0.648   1.025  -0.819  1.00  0.00     0.214 A 
ATOM      3  C   UNL     1      -1.760   0.356  -0.467  1.00  0.00     0.180 A 
ATOM      4  O   UNL     1      -2.886   1.027  -0.101  1.00  0.00    -0.452 OA
ATOM      5  C   UNL     1      -0.647   2.403  -0.815  1.00  0.00     0.239 A 
ATOM      6  C   UNL     1      -2.965   2.311  -0.073  1.00  0.00     0.146 A 
ATOM      7  O   UNL     1       0.342   3.107  -1.131  1.00  0.00    -0.285 OA
ATOM      8  C   UNL     1      -1.832   3.053  -0.434  1.00  0.00     0.111 A 
ATOM      9  C   UNL     1      -4.156   2.966   0.302  1.00  0.00     0.094 A 
ATOM     10  C   UNL     1      -1.857   4.396  -0.419  1.00  0.00     0.134 A 
ATOM     11  C   UNL     1      -4.123   4.329   0.291  1.00  0.00     0.123 A 
ATOM     12  C   UNL     1      -3.042   5.059  -0.043  1.00  0.00     0.093 A 
BRANCH   3  13
ATOM     13  C   UNL     1      -1.865  -1.082  -0.427  1.00  0.00     0.025 A 
ATOM     14  C   UNL     1      -2.138  -3.838  -0.146  1.00  0.00     0.157 A 
ATOM     15  C   UNL     1      -1.148  -3.359  -0.937  1.00  0.00     0.051 A 
ATOM     16  C   UNL     1      -3.018  -2.992   0.531  1.00  0.00     0.158 A 
ATOM     17  C   UNL     1      -1.060  -1.954  -1.044  1.00  0.00     0.016 A 
ATOM     18  C   UNL     1      -2.865  -1.644   0.380  1.00  0.00     0.062 A 
BRANCH  14  19
ATOM     19  O   UNL     1      -2.254  -5.241  -0.024  1.00  0.00    -0.504 OA
ATOM     20  H   UNL     1      -3.242  -5.544  -0.099  1.00  0.00     0.293 HD
ENDBRANCH  14  19
BRANCH  16  21
ATOM     21  O   UNL     1      -3.976  -3.600   1.308  1.00  0.00    -0.504 OA
ATOM     22  H   UNL     1      -4.031  -3.348   2.319  1.00  0.00     0.293 HD
ENDBRANCH  16  21
ENDBRANCH   3  13
BRANCH  10  23
ATOM     23  O   UNL     1      -0.711   5.109  -0.778  1.00  0.00    -0.507 OA
ATOM     24  H   UNL     1       0.058   5.145  -0.091  1.00  0.00     0.293 HD
ENDBRANCH  10  23
BRANCH  11  25
ATOM     25  O   UNL     1      -5.316   5.046   0.666  1.00  0.00    -0.508 OA
ATOM     26  H   UNL     1      -5.436   5.952   0.195  1.00  0.00     0.293 HD
ENDBRANCH  11  25
ENDBRANCH   1   2
BRANCH   1  27
ATOM     27  C   UNL     1       1.417  -0.104  -0.198  1.00  0.00     0.339 C 
ATOM     28  C   UNL     1       2.768   0.763  -0.183  1.00  0.00     0.214 C 
ATOM     29  O   UNL     1       2.069  -1.126  -0.308  1.00  0.00    -0.332 OA
ATOM     30  C   UNL     1       3.925  -0.014   0.688  1.00  0.00     0.180 C 
ATOM     31  C   UNL     1       2.684  -2.089  -0.413  1.00  0.00     0.179 C 
ATOM     32  C   UNL     1       4.064  -1.191  -0.410  1.00  0.00     0.177 C 
BRANCH  28  33
ATOM     33  O   UNL     1       2.596   1.931   0.461  1.00  0.00    -0.384 OA
ATOM     34  H   UNL     1       1.717   1.953   0.887  1.00  0.00     0.211 HD
ENDBRANCH  28  33
BRANCH  30  35
ATOM     35  O   UNL     1       5.024   0.720   0.639  1.00  0.00    -0.387 OA
ATOM     36  H   UNL     1       4.928   1.699   0.745  1.00  0.00     0.211 HD
ENDBRANCH  30  35
BRANCH  31  37
ATOM     37  C   UNL     1       2.946  -2.998   0.768  1.00  0.00     0.191 C 
BRANCH  37  38
ATOM     38  O   UNL     1       3.730  -4.093   0.410  1.00  0.00    -0.394 OA
ATOM     39  H   UNL     1       3.851  -4.122  -0.580  1.00  0.00     0.210 HD
ENDBRANCH  37  38
ENDBRANCH  31  37
BRANCH  32  40
ATOM     40  O   UNL     1       5.074  -1.965   0.037  1.00  0.00    -0.387 OA
ATOM     41  H   UNL     1       5.452  -1.687   0.922  1.00  0.00     0.211 HD
ENDBRANCH  32  40
ENDBRANCH   1  27
TORSDOF 12
