REMARK SMILES CCCCCCCCCCCCCCCC(=O)[O-]
REMARK SMILES IDX 9 1 10 2 11 3 12 4 13 5 14 6 15 7 16 8 17 9 18 10 8 11 7 12
REMARK SMILES IDX 6 13 5 14 4 15 3 16 2 17 1 18
REMARK H PARENT
REMARK Flexibility Score: inf
ROOT
ATOM      1  C   UNL     1      -0.051   2.791   0.140  1.00  0.00     0.000 C 
ENDROOT
BRANCH   1   2
ATOM      2  C   UNL     1      -1.189   2.174   0.971  1.00  0.00     0.000 C 
BRANCH   2   3
ATOM      3  C   UNL     1      -1.934   1.057   0.228  1.00  0.00     0.000 C 
BRANCH   3   4
ATOM      4  C   UNL     1      -3.144   0.570   1.034  1.00  0.00     0.000 C 
BRANCH   4   5
ATOM      5  C   UNL     1      -3.893  -0.542   0.284  1.00  0.00     0.000 C 
BRANCH   5   6
ATOM      6  C   UNL     1      -5.019  -1.167   1.121  1.00  0.00     0.006 C 
BRANCH   6   7
ATOM      7  C   UNL     1      -6.207  -0.216   1.318  1.00  0.00     0.053 C 
BRANCH   7   8
ATOM      8  C   UNL     1      -7.323  -0.917   2.026  1.00  0.00     0.041 C 
ATOM      9  O   UNL     1      -8.206  -1.529   1.369  1.00  0.00    -0.550 OA
ATOM     10  O   UNL     1      -7.359  -0.941   3.415  1.00  0.00    -0.550 OA
ENDBRANCH   7   8
ENDBRANCH   6   7
ENDBRANCH   5   6
ENDBRANCH   4   5
ENDBRANCH   3   4
ENDBRANCH   2   3
ENDBRANCH   1   2
BRANCH   1  11
ATOM     11  C   UNL     1       1.117   1.818  -0.124  1.00  0.00     0.000 C 
BRANCH  11  12
ATOM     12  C   UNL     1       1.086   1.247  -1.553  1.00  0.00    -0.000 C 
BRANCH  12  13
ATOM     13  C   UNL     1       2.089   0.101  -1.752  1.00  0.00    -0.000 C 
BRANCH  13  14
ATOM     14  C   UNL     1       3.550   0.578  -1.688  1.00  0.00    -0.000 C 
BRANCH  14  15
ATOM     15  C   UNL     1       4.550  -0.499  -2.145  1.00  0.00    -0.000 C 
BRANCH  15  16
ATOM     16  C   UNL     1       4.555  -1.781  -1.292  1.00  0.00    -0.000 C 
BRANCH  16  17
ATOM     17  C   UNL     1       4.959  -1.527   0.167  1.00  0.00    -0.003 C 
ATOM     18  C   UNL     1       5.130  -2.839   0.927  1.00  0.00     0.004 C 
ENDBRANCH  16  17
ENDBRANCH  15  16
ENDBRANCH  14  15
ENDBRANCH  13  14
ENDBRANCH  12  13
ENDBRANCH  11  12
ENDBRANCH   1  11
TORSDOF 14
